<?xml version="1.0" encoding="UTF-8"?>

<!-- generated on 06/16/16 23:47:44 by SUMO Version 0.25.0
<?xml version="1.0" encoding="UTF-8"?>

<configuration xmlns:xsi="http://www.w3.org/2001/XMLSchema-instance" xsi:noNamespaceSchemaLocation="http://sumo.dlr.de/xsd/sumoConfiguration.xsd">

    <input>
        <net-file value="single_lane/hello.net.xml"/>
        <route-files value="single_lane/hello_2.rou.xml"/>
        <additional-files value="single_lane/hello.det.xml"/>
    </input>

    <output>
        <save-state.prefix value="single_lane/state"/>
    </output>

    <time>
        <begin value="0"/>
        <end value="10000"/>
        <step-length value="0.1"/>
    </time>

    <emissions>
        <phemlight-path value="single_lane/./PHEMlight/"/>
    </emissions>

    <traci_server>
        <remote-port value="8873"/>
    </traci_server>

    <gui_only>
        <gui-settings-file value="single_lane/hello.settings.xml"/>
    </gui_only>

</configuration>
