<?xml version="1.0" encoding="UTF-8"?>

<!-- generated on 7/28/2016 1:20:12 PM by SUMO gui Version 0.25.0
<?xml version="1.0" encoding="UTF-8"?>

<configuration xmlns:xsi="http://www.w3.org/2001/XMLSchema-instance" xsi:noNamespaceSchemaLocation="http://sumo.dlr.de/xsd/sumo-gui.exeConfiguration.xsd">

    <input>
        <net-file value="huntcol_network/huntcol.net.xml"/>
        <route-files value="huntcol_network/huntcol_largeQ.rou.xml"/>
        <additional-files value="huntcol_network/huntcol.det.xml,huntcol_network/vtypeprobe.xml"/>
    </input>

    <output>
        <save-state.prefix value="huntcol_network/state"/>
    </output>

    <time>
        <begin value="0"/>
        <end value="3600"/>
        <step-length value="0.1"/>
    </time>

    <processing>
        <time-to-teleport value="-1"/>
    </processing>

    <emissions>
        <phemlight-path value="huntcol_network/./PHEMlight/"/>
    </emissions>

    <traci_server>
        <remote-port value="8873"/>
    </traci_server>

</configuration>
-->

<vehicle-type-probes>
    <timestep time="0.00" id="veh5" vType="">
        <vehicle id="veh0" lane="G3b_0" pos="5.10" x="187.55" y="995.40" speed="30.00"/>
    </timestep>
    <timestep time="1.00" id="veh5" vType="">
        <vehicle id="veh0" lane="G3b_0" pos="35.10" x="217.55" y="995.60" speed="30.00"/>
        <vehicle id="veh1" lane="G3b_0" pos="18.70" x="201.15" y="995.49" speed="27.28"/>
        <vehicle id="veh2" lane="G3b_0" pos="5.10" x="187.55" y="995.40" speed="24.34"/>
    </timestep>
    <timestep time="2.00" id="veh5" vType="">
        <vehicle id="veh0" lane="G3b_0" pos="65.10" x="247.55" y="995.79" speed="30.00"/>
        <vehicle id="veh1" lane="G3b_0" pos="46.19" x="228.64" y="995.67" speed="27.64"/>
        <vehicle id="veh2" lane="G3b_0" pos="29.80" x="212.25" y="995.56" speed="25.04"/>
        <vehicle id="veh3" lane="G3b_0" pos="16.05" x="198.50" y="995.47" speed="22.14"/>
        <vehicle id="veh4" lane="G3b_0" pos="5.10" x="187.55" y="995.40" speed="19.02"/>
    </timestep>
    <timestep time="3.00" id="veh5" vType="">
        <vehicle id="veh0" lane="G3b_0" pos="95.10" x="277.55" y="995.99" speed="30.00"/>
        <vehicle id="veh1" lane="G3b_0" pos="74.01" x="256.46" y="995.85" speed="27.96"/>
        <vehicle id="veh2" lane="G3b_0" pos="55.21" x="237.66" y="995.73" speed="25.70"/>
        <vehicle id="veh3" lane="G3b_0" pos="38.79" x="221.24" y="995.62" speed="23.22"/>
        <vehicle id="veh4" lane="G3b_0" pos="24.86" x="207.31" y="995.53" speed="20.45"/>
        <vehicle id="veh5" lane="G3b_0" pos="13.55" x="196.00" y="995.46" speed="17.32"/>
        <vehicle id="veh6" lane="G3b_0" pos="5.10" x="187.55" y="995.40" speed="13.96"/>
    </timestep>
    <timestep time="4.00" id="veh5" vType="">
        <vehicle id="veh0" lane="G3b_0" pos="125.10" x="307.55" y="996.18" speed="30.00"/>
        <vehicle id="veh1" lane="G3b_0" pos="102.11" x="284.56" y="996.03" speed="28.22"/>
        <vehicle id="veh2" lane="G3b_0" pos="81.23" x="263.68" y="995.90" speed="26.27"/>
        <vehicle id="veh3" lane="G3b_0" pos="62.52" x="244.97" y="995.78" speed="24.12"/>
        <vehicle id="veh4" lane="G3b_0" pos="46.04" x="228.49" y="995.67" speed="21.75"/>
        <vehicle id="veh5" lane="G3b_0" pos="31.89" x="214.34" y="995.58" speed="19.12"/>
        <vehicle id="veh6" lane="G3b_0" pos="20.20" x="202.65" y="995.50" speed="16.16"/>
        <vehicle id="veh7" lane="G3b_0" pos="11.09" x="193.54" y="995.44" speed="12.50"/>
    </timestep>
    <timestep time="5.00" id="veh5" vType="">
        <vehicle id="veh0" lane="G3b_0" pos="155.10" x="337.55" y="996.38" speed="30.00"/>
        <vehicle id="veh1" lane="G3b_0" pos="130.46" x="312.91" y="996.22" speed="28.45"/>
        <vehicle id="veh2" lane="G3b_0" pos="107.77" x="290.22" y="996.07" speed="26.75"/>
        <vehicle id="veh3" lane="G3b_0" pos="87.07" x="269.51" y="995.94" speed="24.88"/>
        <vehicle id="veh4" lane="G3b_0" pos="68.40" x="250.85" y="995.81" speed="22.83"/>
        <vehicle id="veh5" lane="G3b_0" pos="51.84" x="234.29" y="995.71" speed="20.58"/>
        <vehicle id="veh6" lane="G3b_0" pos="37.46" x="219.91" y="995.61" speed="18.09"/>
        <vehicle id="veh7" lane="G3b_0" pos="25.02" x="207.47" y="995.53" speed="15.10"/>
        <vehicle id="veh8" lane="G3b_0" pos="14.49" x="196.94" y="995.46" speed="11.47"/>
        <vehicle id="veh9" lane="G3b_0" pos="7.29" x="189.74" y="995.42" speed="7.56"/>
    </timestep>
    <timestep time="6.00" id="veh5" vType="">
        <vehicle id="veh0" lane="G3b_0" pos="185.10" x="367.55" y="996.57" speed="30.00"/>
        <vehicle id="veh1" lane="G3b_0" pos="159.03" x="341.48" y="996.40" speed="28.65"/>
        <vehicle id="veh10" lane="G3b_0" pos="8.12" x="190.57" y="995.42" speed="6.56"/>
        <vehicle id="veh2" lane="G3b_0" pos="134.75" x="317.20" y="996.24" speed="27.16"/>
        <vehicle id="veh3" lane="G3b_0" pos="112.31" x="294.76" y="996.10" speed="25.53"/>
        <vehicle id="veh4" lane="G3b_0" pos="91.75" x="274.19" y="995.97" speed="23.74"/>
        <vehicle id="veh5" lane="G3b_0" pos="73.10" x="255.55" y="995.84" speed="21.79"/>
        <vehicle id="veh6" lane="G3b_0" pos="56.43" x="238.88" y="995.74" speed="19.65"/>
        <vehicle id="veh7" lane="G3b_0" pos="41.47" x="223.92" y="995.64" speed="17.38"/>
        <vehicle id="veh8" lane="G3b_0" pos="27.39" x="209.84" y="995.55" speed="14.07"/>
        <vehicle id="veh9" lane="G3b_0" pos="16.28" x="198.73" y="995.48" speed="10.16"/>
    </timestep>
    <timestep time="7.00" id="veh5" vType="">
        <vehicle id="veh0" lane="G3b_0" pos="215.10" x="397.55" y="996.77" speed="30.00"/>
        <vehicle id="veh1" lane="G3b_0" pos="187.78" x="370.22" y="996.59" speed="28.83"/>
        <vehicle id="veh10" lane="G3b_0" pos="16.11" x="198.56" y="995.47" speed="9.16"/>
        <vehicle id="veh11" lane="G3b_0" pos="7.77" x="190.22" y="995.42" speed="5.86"/>
        <vehicle id="veh2" lane="G3b_0" pos="162.12" x="344.57" y="996.42" speed="27.52"/>
        <vehicle id="veh3" lane="G3b_0" pos="138.16" x="320.60" y="996.27" speed="26.09"/>
        <vehicle id="veh4" lane="G3b_0" pos="115.93" x="298.37" y="996.12" speed="24.52"/>
        <vehicle id="veh5" lane="G3b_0" pos="95.47" x="277.91" y="995.99" speed="22.81"/>
        <vehicle id="veh6" lane="G3b_0" pos="76.82" x="259.27" y="995.87" speed="20.95"/>
        <vehicle id="veh7" lane="G3b_0" pos="59.75" x="242.20" y="995.76" speed="18.97"/>
        <vehicle id="veh8" lane="G3b_0" pos="42.89" x="225.34" y="995.65" speed="16.67"/>
        <vehicle id="veh9" lane="G3b_0" pos="27.87" x="210.32" y="995.55" speed="12.76"/>
    </timestep>
    <timestep time="8.00" id="veh5" vType="">
        <vehicle id="veh0" lane="G3b_0" pos="245.10" x="427.55" y="996.96" speed="30.00"/>
        <vehicle id="veh1" lane="G3b_0" pos="216.69" x="399.13" y="996.78" speed="28.97"/>
        <vehicle id="veh10" lane="G3b_0" pos="26.71" x="209.15" y="995.54" speed="11.76"/>
        <vehicle id="veh11" lane="G3b_0" pos="15.06" x="197.51" y="995.47" speed="8.46"/>
        <vehicle id="veh12" lane="G3b_0" pos="7.05" x="189.50" y="995.42" speed="5.26"/>
        <vehicle id="veh2" lane="G3b_0" pos="189.81" x="372.26" y="996.60" speed="27.83"/>
        <vehicle id="veh3" lane="G3b_0" pos="164.51" x="346.96" y="996.44" speed="26.57"/>
        <vehicle id="veh4" lane="G3b_0" pos="140.82" x="323.26" y="996.28" speed="25.18"/>
        <vehicle id="veh5" lane="G3b_0" pos="118.76" x="301.21" y="996.14" speed="23.67"/>
        <vehicle id="veh6" lane="G3b_0" pos="98.38" x="280.83" y="996.01" speed="22.04"/>
        <vehicle id="veh7" lane="G3b_0" pos="79.47" x="261.92" y="995.89" speed="20.30"/>
        <vehicle id="veh8" lane="G3b_0" pos="60.84" x="243.29" y="995.76" speed="18.72"/>
        <vehicle id="veh9" lane="G3b_0" pos="42.05" x="224.50" y="995.64" speed="15.36"/>
    </timestep>
    <timestep time="9.00" id="veh5" vType="">
        <vehicle id="veh0" lane="G3b_0" pos="275.10" x="457.54" y="997.16" speed="30.00"/>
        <vehicle id="veh1" lane="G3b_0" pos="245.74" x="428.18" y="996.97" speed="29.11"/>
        <vehicle id="veh10" lane="G3b_0" pos="39.90" x="222.35" y="995.63" speed="14.36"/>
        <vehicle id="veh11" lane="G3b_0" pos="24.96" x="207.41" y="995.53" speed="11.06"/>
        <vehicle id="veh12" lane="G3b_0" pos="13.74" x="196.19" y="995.46" speed="7.86"/>
        <vehicle id="veh13" lane="G3b_0" pos="6.38" x="188.83" y="995.41" speed="4.52"/>
        <vehicle id="veh2" lane="G3b_0" pos="217.80" x="400.24" y="996.78" speed="28.10"/>
        <vehicle id="veh3" lane="G3b_0" pos="191.31" x="373.76" y="996.61" speed="26.98"/>
        <vehicle id="veh4" lane="G3b_0" pos="166.32" x="348.77" y="996.45" speed="25.76"/>
        <vehicle id="veh5" lane="G3b_0" pos="142.86" x="325.30" y="996.30" speed="24.42"/>
        <vehicle id="veh6" lane="G3b_0" pos="120.94" x="303.39" y="996.16" speed="22.97"/>
        <vehicle id="veh7" lane="G3b_0" pos="100.41" x="282.86" y="996.02" speed="21.43"/>
        <vehicle id="veh8" lane="G3b_0" pos="80.28" x="262.73" y="995.89" speed="20.00"/>
        <vehicle id="veh9" lane="G3b_0" pos="58.84" x="241.29" y="995.75" speed="17.96"/>
    </timestep>
    <timestep time="10.00" id="veh5" vType="">
        <vehicle id="veh0" lane="G3b_0" pos="305.10" x="487.54" y="997.35" speed="30.00"/>
        <vehicle id="veh1" lane="G3b_0" pos="274.90" x="457.35" y="997.15" speed="29.22"/>
        <vehicle id="veh10" lane="G3b_0" pos="55.69" x="238.14" y="995.73" speed="16.96"/>
        <vehicle id="veh11" lane="G3b_0" pos="37.45" x="219.90" y="995.61" speed="13.66"/>
        <vehicle id="veh12" lane="G3b_0" pos="23.03" x="205.48" y="995.52" speed="10.46"/>
        <vehicle id="veh13" lane="G3b_0" pos="12.33" x="194.78" y="995.45" speed="7.12"/>
        <vehicle id="veh14" lane="G3b_0" pos="5.49" x="187.94" y="995.41" speed="3.91"/>
        <vehicle id="veh2" lane="G3b_0" pos="246.03" x="428.47" y="996.97" speed="28.33"/>
        <vehicle id="veh3" lane="G3b_0" pos="218.50" x="400.95" y="996.79" speed="27.35"/>
        <vehicle id="veh4" lane="G3b_0" pos="192.36" x="374.81" y="996.62" speed="26.26"/>
        <vehicle id="veh5" lane="G3b_0" pos="167.64" x="350.09" y="996.46" speed="25.07"/>
        <vehicle id="veh6" lane="G3b_0" pos="144.36" x="326.81" y="996.31" speed="23.77"/>
        <vehicle id="veh7" lane="G3b_0" pos="122.39" x="304.84" y="996.16" speed="22.40"/>
        <vehicle id="veh8" lane="G3b_0" pos="100.90" x="283.35" y="996.02" speed="21.11"/>
        <vehicle id="veh9" lane="G3b_0" pos="78.17" x="260.62" y="995.88" speed="20.21"/>
    </timestep>
    <timestep time="11.00" id="veh5" vType="">
        <vehicle id="veh0" lane="G3b_0" pos="335.10" x="517.54" y="997.55" speed="30.00"/>
        <vehicle id="veh1" lane="G3b_0" pos="304.18" x="486.62" y="997.34" speed="29.32"/>
        <vehicle id="veh10" lane="G3b_0" pos="74.08" x="256.53" y="995.85" speed="19.56"/>
        <vehicle id="veh11" lane="G3b_0" pos="52.54" x="234.99" y="995.71" speed="16.26"/>
        <vehicle id="veh12" lane="G3b_0" pos="34.93" x="217.38" y="995.60" speed="13.06"/>
        <vehicle id="veh13" lane="G3b_0" pos="20.88" x="203.33" y="995.51" speed="9.72"/>
        <vehicle id="veh14" lane="G3b_0" pos="10.83" x="193.28" y="995.44" speed="6.51"/>
        <vehicle id="veh2" lane="G3b_0" pos="274.48" x="456.92" y="997.15" speed="28.54"/>
        <vehicle id="veh3" lane="G3b_0" pos="246.03" x="428.47" y="996.97" speed="27.66"/>
        <vehicle id="veh4" lane="G3b_0" pos="218.86" x="401.31" y="996.79" speed="26.69"/>
        <vehicle id="veh5" lane="G3b_0" pos="193.02" x="375.47" y="996.62" speed="25.63"/>
        <vehicle id="veh6" lane="G3b_0" pos="168.52" x="350.97" y="996.46" speed="24.47"/>
        <vehicle id="veh7" lane="G3b_0" pos="145.26" x="327.71" y="996.31" speed="23.24"/>
        <vehicle id="veh8" lane="G3b_0" pos="122.55" x="304.99" y="996.17" speed="22.06"/>
        <vehicle id="veh9" lane="G3b_0" pos="98.94" x="281.39" y="996.01" speed="21.20"/>
    </timestep>
    <timestep time="12.00" id="veh5" vType="">
        <vehicle id="veh0" lane="G3b_0" pos="365.10" x="547.54" y="997.74" speed="30.00"/>
        <vehicle id="veh1" lane="G3b_0" pos="333.55" x="515.99" y="997.54" speed="29.40"/>
        <vehicle id="veh10" lane="G3b_0" pos="94.95" x="277.40" y="995.99" speed="21.58"/>
        <vehicle id="veh11" lane="G3b_0" pos="70.24" x="252.69" y="995.83" speed="18.86"/>
        <vehicle id="veh12" lane="G3b_0" pos="49.42" x="231.87" y="995.69" speed="15.66"/>
        <vehicle id="veh13" lane="G3b_0" pos="32.03" x="214.48" y="995.58" speed="12.32"/>
        <vehicle id="veh14" lane="G3b_0" pos="18.76" x="201.21" y="995.49" speed="9.11"/>
        <vehicle id="veh15" lane="G3b_0" pos="9.42" x="191.87" y="995.43" speed="5.84"/>
        <vehicle id="veh2" lane="G3b_0" pos="303.11" x="485.56" y="997.34" speed="28.72"/>
        <vehicle id="veh3" lane="G3b_0" pos="273.84" x="456.29" y="997.15" speed="27.94"/>
        <vehicle id="veh4" lane="G3b_0" pos="245.77" x="428.22" y="996.97" speed="27.07"/>
        <vehicle id="veh5" lane="G3b_0" pos="218.92" x="401.37" y="996.79" speed="26.12"/>
        <vehicle id="veh6" lane="G3b_0" pos="193.34" x="375.78" y="996.63" speed="25.08"/>
        <vehicle id="veh7" lane="G3b_0" pos="168.91" x="351.36" y="996.47" speed="23.97"/>
        <vehicle id="veh8" lane="G3b_0" pos="145.08" x="327.53" y="996.31" speed="22.90"/>
        <vehicle id="veh9" lane="G3b_0" pos="120.63" x="303.07" y="996.15" speed="22.07"/>
    </timestep>
    <timestep time="13.00" id="veh5" vType="">
        <vehicle id="veh0" lane="G3b_0" pos="395.10" x="577.54" y="997.93" speed="30.00"/>
        <vehicle id="veh1" lane="G3b_0" pos="362.99" x="545.43" y="997.73" speed="29.48"/>
        <vehicle id="veh10" lane="G3b_0" pos="116.95" x="299.40" y="996.13" speed="22.33"/>
        <vehicle id="veh11" lane="G3b_0" pos="90.53" x="272.98" y="995.96" speed="21.46"/>
        <vehicle id="veh12" lane="G3b_0" pos="66.51" x="248.96" y="995.80" speed="18.26"/>
        <vehicle id="veh13" lane="G3b_0" pos="45.79" x="228.24" y="995.67" speed="14.92"/>
        <vehicle id="veh14" lane="G3b_0" pos="29.30" x="211.75" y="995.56" speed="11.71"/>
        <vehicle id="veh15" lane="G3b_0" pos="16.69" x="199.14" y="995.48" speed="8.44"/>
        <vehicle id="veh16" lane="G3b_0" pos="8.13" x="190.58" y="995.42" speed="5.11"/>
        <vehicle id="veh2" lane="G3b_0" pos="331.92" x="514.36" y="997.52" speed="28.87"/>
        <vehicle id="veh3" lane="G3b_0" pos="301.92" x="484.36" y="997.33" speed="28.18"/>
        <vehicle id="veh4" lane="G3b_0" pos="273.03" x="455.48" y="997.14" speed="27.41"/>
        <vehicle id="veh5" lane="G3b_0" pos="245.29" x="427.73" y="996.96" speed="26.55"/>
        <vehicle id="veh6" lane="G3b_0" pos="218.72" x="401.16" y="996.79" speed="25.62"/>
        <vehicle id="veh7" lane="G3b_0" pos="193.25" x="375.69" y="996.62" speed="24.62"/>
        <vehicle id="veh8" lane="G3b_0" pos="168.39" x="350.84" y="996.46" speed="23.64"/>
        <vehicle id="veh9" lane="G3b_0" pos="143.13" x="325.58" y="996.30" speed="22.85"/>
    </timestep>
    <timestep time="14.00" id="veh5" vType="">
        <vehicle id="veh0" lane="G3b_0" pos="425.10" x="607.54" y="998.13" speed="30.00"/>
        <vehicle id="veh1" lane="G3b_0" pos="392.51" x="574.95" y="997.92" speed="29.54"/>
        <vehicle id="veh10" lane="G3b_0" pos="139.66" x="322.11" y="996.28" speed="23.01"/>
        <vehicle id="veh11" lane="G3b_0" pos="112.80" x="295.25" y="996.10" speed="22.59"/>
        <vehicle id="veh12" lane="G3b_0" pos="86.20" x="268.65" y="995.93" speed="20.86"/>
        <vehicle id="veh13" lane="G3b_0" pos="62.14" x="244.59" y="995.77" speed="17.52"/>
        <vehicle id="veh14" lane="G3b_0" pos="42.43" x="224.88" y="995.65" speed="14.31"/>
        <vehicle id="veh15" lane="G3b_0" pos="26.56" x="209.01" y="995.54" speed="11.04"/>
        <vehicle id="veh16" lane="G3b_0" pos="14.67" x="197.12" y="995.47" speed="7.71"/>
        <vehicle id="veh17" lane="G3b_0" pos="6.78" x="189.23" y="995.41" speed="4.60"/>
        <vehicle id="veh2" lane="G3b_0" pos="360.86" x="543.31" y="997.71" speed="29.01"/>
        <vehicle id="veh3" lane="G3b_0" pos="330.22" x="512.66" y="997.51" speed="28.39"/>
        <vehicle id="veh4" lane="G3b_0" pos="300.60" x="483.05" y="997.32" speed="27.70"/>
        <vehicle id="veh5" lane="G3b_0" pos="272.05" x="454.50" y="997.14" speed="26.93"/>
        <vehicle id="veh6" lane="G3b_0" pos="244.60" x="427.04" y="996.96" speed="26.09"/>
        <vehicle id="veh7" lane="G3b_0" pos="218.18" x="400.63" y="996.79" speed="25.18"/>
        <vehicle id="veh8" lane="G3b_0" pos="192.39" x="374.84" y="996.62" speed="24.29"/>
        <vehicle id="veh9" lane="G3b_0" pos="166.37" x="348.81" y="996.45" speed="23.54"/>
    </timestep>
    <timestep time="15.00" id="veh5" vType="">
        <vehicle id="veh0" lane="G3b_0" pos="455.10" x="637.54" y="998.32" speed="30.00"/>
        <vehicle id="veh1" lane="G3b_0" pos="422.08" x="604.52" y="998.11" speed="29.60"/>
        <vehicle id="veh10" lane="G3b_0" pos="163.02" x="345.47" y="996.43" speed="23.63"/>
        <vehicle id="veh11" lane="G3b_0" pos="135.73" x="318.17" y="996.25" speed="23.20"/>
        <vehicle id="veh12" lane="G3b_0" pos="108.37" x="290.82" y="996.07" speed="22.84"/>
        <vehicle id="veh13" lane="G3b_0" pos="81.09" x="263.54" y="995.90" speed="20.12"/>
        <vehicle id="veh14" lane="G3b_0" pos="58.17" x="240.62" y="995.75" speed="16.91"/>
        <vehicle id="veh15" lane="G3b_0" pos="39.04" x="221.49" y="995.62" speed="13.64"/>
        <vehicle id="veh16" lane="G3b_0" pos="23.81" x="206.26" y="995.52" speed="10.31"/>
        <vehicle id="veh17" lane="G3b_0" pos="12.81" x="195.26" y="995.45" speed="7.20"/>
        <vehicle id="veh18" lane="G3b_0" pos="5.85" x="188.30" y="995.41" speed="3.90"/>
        <vehicle id="veh2" lane="G3b_0" pos="389.94" x="572.38" y="997.90" speed="29.13"/>
        <vehicle id="veh3" lane="G3b_0" pos="358.72" x="541.16" y="997.70" speed="28.58"/>
        <vehicle id="veh4" lane="G3b_0" pos="328.45" x="510.89" y="997.50" speed="27.96"/>
        <vehicle id="veh5" lane="G3b_0" pos="299.17" x="481.62" y="997.31" speed="27.27"/>
        <vehicle id="veh6" lane="G3b_0" pos="270.92" x="453.36" y="997.13" speed="26.50"/>
        <vehicle id="veh7" lane="G3b_0" pos="243.64" x="426.09" y="996.95" speed="25.68"/>
        <vehicle id="veh8" lane="G3b_0" pos="217.00" x="399.44" y="996.78" speed="24.86"/>
        <vehicle id="veh9" lane="G3b_0" pos="190.25" x="372.70" y="996.60" speed="24.16"/>
    </timestep>
    <timestep time="16.00" id="veh5" vType="">
        <vehicle id="veh0" lane="G3b_0" pos="485.10" x="667.54" y="998.52" speed="30.00"/>
        <vehicle id="veh1" lane="G3b_0" pos="451.71" x="634.15" y="998.30" speed="29.65"/>
        <vehicle id="veh10" lane="G3b_0" pos="186.97" x="369.42" y="996.58" speed="24.20"/>
        <vehicle id="veh11" lane="G3b_0" pos="159.23" x="341.68" y="996.40" speed="23.75"/>
        <vehicle id="veh12" lane="G3b_0" pos="131.51" x="313.95" y="996.22" speed="23.38"/>
        <vehicle id="veh13" lane="G3b_0" pos="102.64" x="285.09" y="996.04" speed="22.72"/>
        <vehicle id="veh14" lane="G3b_0" pos="76.51" x="258.95" y="995.87" speed="19.51"/>
        <vehicle id="veh15" lane="G3b_0" pos="54.11" x="236.56" y="995.72" speed="16.24"/>
        <vehicle id="veh16" lane="G3b_0" pos="35.55" x="218.00" y="995.60" speed="12.91"/>
        <vehicle id="veh17" lane="G3b_0" pos="21.44" x="203.89" y="995.51" speed="9.80"/>
        <vehicle id="veh18" lane="G3b_0" pos="11.18" x="193.63" y="995.44" speed="6.50"/>
        <vehicle id="veh19" lane="G3b_0" pos="5.10" x="187.55" y="995.40" speed="3.36"/>
        <vehicle id="veh2" lane="G3b_0" pos="419.12" x="601.57" y="998.09" speed="29.23"/>
        <vehicle id="veh3" lane="G3b_0" pos="387.39" x="569.83" y="997.88" speed="28.74"/>
        <vehicle id="veh4" lane="G3b_0" pos="356.53" x="538.98" y="997.68" speed="28.19"/>
        <vehicle id="veh5" lane="G3b_0" pos="326.61" x="509.05" y="997.49" speed="27.56"/>
        <vehicle id="veh6" lane="G3b_0" pos="297.63" x="480.07" y="997.30" speed="26.87"/>
        <vehicle id="veh7" lane="G3b_0" pos="269.58" x="452.02" y="997.12" speed="26.13"/>
        <vehicle id="veh8" lane="G3b_0" pos="242.15" x="424.59" y="996.94" speed="25.38"/>
        <vehicle id="veh9" lane="G3b_0" pos="214.73" x="397.17" y="996.76" speed="24.72"/>
    </timestep>
    <timestep time="17.00" id="veh5" vType="">
        <vehicle id="veh0" lane="G3b_0" pos="515.10" x="697.54" y="998.71" speed="30.00"/>
        <vehicle id="veh1" lane="G3b_0" pos="481.39" x="663.83" y="998.49" speed="29.69"/>
        <vehicle id="veh10" lane="G3b_0" pos="211.46" x="393.90" y="996.74" speed="24.71"/>
        <vehicle id="veh11" lane="G3b_0" pos="183.28" x="365.72" y="996.56" speed="24.27"/>
        <vehicle id="veh12" lane="G3b_0" pos="155.16" x="337.61" y="996.38" speed="23.88"/>
        <vehicle id="veh13" lane="G3b_0" pos="126.10" x="308.55" y="996.19" speed="23.70"/>
        <vehicle id="veh14" lane="G3b_0" pos="97.44" x="279.89" y="996.00" speed="22.11"/>
        <vehicle id="veh15" lane="G3b_0" pos="71.78" x="254.23" y="995.84" speed="18.84"/>
        <vehicle id="veh16" lane="G3b_0" pos="49.89" x="232.34" y="995.69" speed="15.51"/>
        <vehicle id="veh17" lane="G3b_0" pos="32.67" x="215.12" y="995.58" speed="12.40"/>
        <vehicle id="veh18" lane="G3b_0" pos="19.10" x="201.55" y="995.49" speed="9.10"/>
        <vehicle id="veh19" lane="G3b_0" pos="9.63" x="192.08" y="995.43" speed="5.70"/>
        <vehicle id="veh2" lane="G3b_0" pos="448.41" x="630.85" y="998.28" speed="29.32"/>
        <vehicle id="veh3" lane="G3b_0" pos="416.21" x="598.65" y="998.07" speed="28.89"/>
        <vehicle id="veh4" lane="G3b_0" pos="384.84" x="567.28" y="997.87" speed="28.39"/>
        <vehicle id="veh5" lane="G3b_0" pos="354.32" x="536.76" y="997.67" speed="27.83"/>
        <vehicle id="veh6" lane="G3b_0" pos="324.69" x="507.13" y="997.48" speed="27.20"/>
        <vehicle id="veh7" lane="G3b_0" pos="295.92" x="478.37" y="997.29" speed="26.52"/>
        <vehicle id="veh8" lane="G3b_0" pos="267.78" x="450.23" y="997.11" speed="25.83"/>
        <vehicle id="veh9" lane="G3b_0" pos="239.72" x="422.17" y="996.93" speed="25.22"/>
    </timestep>
    <timestep time="18.00" id="veh5" vType="">
        <vehicle id="veh0" lane="G3b_0" pos="545.10" x="727.54" y="998.91" speed="30.00"/>
        <vehicle id="veh1" lane="G3b_0" pos="511.10" x="693.54" y="998.69" speed="29.73"/>
        <vehicle id="veh10" lane="G3b_0" pos="236.43" x="418.88" y="996.90" speed="25.18"/>
        <vehicle id="veh11" lane="G3b_0" pos="207.81" x="390.25" y="996.72" speed="24.74"/>
        <vehicle id="veh12" lane="G3b_0" pos="179.30" x="361.75" y="996.53" speed="24.35"/>
        <vehicle id="veh13" lane="G3b_0" pos="150.05" x="332.49" y="996.34" speed="24.13"/>
        <vehicle id="veh14" lane="G3b_0" pos="120.81" x="303.26" y="996.15" speed="23.95"/>
        <vehicle id="veh15" lane="G3b_0" pos="92.05" x="274.50" y="995.97" speed="21.44"/>
        <vehicle id="veh16" lane="G3b_0" pos="66.83" x="249.28" y="995.80" speed="18.11"/>
        <vehicle id="veh17" lane="G3b_0" pos="46.50" x="228.95" y="995.67" speed="15.00"/>
        <vehicle id="veh18" lane="G3b_0" pos="29.63" x="212.08" y="995.56" speed="11.70"/>
        <vehicle id="veh19" lane="G3b_0" pos="16.75" x="199.20" y="995.48" speed="8.30"/>
        <vehicle id="veh2" lane="G3b_0" pos="477.78" x="660.22" y="998.47" speed="29.40"/>
        <vehicle id="veh20" lane="G3b_0" pos="8.11" x="190.56" y="995.42" speed="5.08"/>
        <vehicle id="veh3" lane="G3b_0" pos="445.17" x="627.61" y="998.26" speed="29.02"/>
        <vehicle id="veh4" lane="G3b_0" pos="413.33" x="595.77" y="998.05" speed="28.57"/>
        <vehicle id="veh5" lane="G3b_0" pos="382.27" x="564.72" y="997.85" speed="28.06"/>
        <vehicle id="veh6" lane="G3b_0" pos="352.05" x="534.50" y="997.66" speed="27.49"/>
        <vehicle id="veh7" lane="G3b_0" pos="322.65" x="505.09" y="997.46" speed="26.88"/>
        <vehicle id="veh8" lane="G3b_0" pos="293.84" x="476.29" y="997.28" speed="26.24"/>
        <vehicle id="veh9" lane="G3b_0" pos="265.19" x="447.64" y="997.09" speed="25.67"/>
    </timestep>
    <timestep time="19.00" id="veh5" vType="">
        <vehicle id="veh0" lane="G3b_0" pos="575.10" x="757.54" y="999.10" speed="30.00"/>
        <vehicle id="veh1" lane="G3b_0" pos="540.85" x="723.29" y="998.88" speed="29.77"/>
        <vehicle id="veh10" lane="G3b_0" pos="261.85" x="444.30" y="997.07" speed="25.61"/>
        <vehicle id="veh11" lane="G3b_0" pos="232.79" x="415.24" y="996.88" speed="25.18"/>
        <vehicle id="veh12" lane="G3b_0" pos="203.89" x="386.34" y="996.69" speed="24.79"/>
        <vehicle id="veh13" lane="G3b_0" pos="174.41" x="356.85" y="996.50" speed="24.54"/>
        <vehicle id="veh14" lane="G3b_0" pos="144.97" x="327.42" y="996.31" speed="24.33"/>
        <vehicle id="veh15" lane="G3b_0" pos="114.92" x="297.37" y="996.12" speed="24.04"/>
        <vehicle id="veh16" lane="G3b_0" pos="86.37" x="268.82" y="995.93" speed="20.71"/>
        <vehicle id="veh17" lane="G3b_0" pos="62.93" x="245.38" y="995.78" speed="17.60"/>
        <vehicle id="veh18" lane="G3b_0" pos="42.75" x="225.20" y="995.65" speed="14.30"/>
        <vehicle id="veh19" lane="G3b_0" pos="26.48" x="208.93" y="995.54" speed="10.90"/>
        <vehicle id="veh2" lane="G3b_0" pos="507.22" x="689.66" y="998.66" speed="29.48"/>
        <vehicle id="veh20" lane="G3b_0" pos="14.63" x="197.08" y="995.46" speed="7.68"/>
        <vehicle id="veh21" lane="G3b_0" pos="6.77" x="189.22" y="995.41" speed="4.56"/>
        <vehicle id="veh3" lane="G3b_0" pos="474.25" x="656.69" y="998.45" speed="29.13"/>
        <vehicle id="veh4" lane="G3b_0" pos="441.98" x="624.42" y="998.24" speed="28.73"/>
        <vehicle id="veh5" lane="G3b_0" pos="410.45" x="592.89" y="998.03" speed="28.27"/>
        <vehicle id="veh6" lane="G3b_0" pos="379.69" x="562.14" y="997.83" speed="27.75"/>
        <vehicle id="veh7" lane="G3b_0" pos="349.70" x="532.14" y="997.64" speed="27.19"/>
        <vehicle id="veh8" lane="G3b_0" pos="320.29" x="502.74" y="997.45" speed="26.61"/>
        <vehicle id="veh9" lane="G3b_0" pos="291.08" x="473.53" y="997.26" speed="26.07"/>
    </timestep>
    <timestep time="20.00" id="veh5" vType="">
        <vehicle id="veh0" lane="G3b_0" pos="605.10" x="787.54" y="999.30" speed="30.00"/>
        <vehicle id="veh1" lane="G3b_0" pos="570.64" x="753.07" y="999.07" speed="29.80"/>
        <vehicle id="veh10" lane="G3b_0" pos="287.68" x="470.12" y="997.24" speed="26.00"/>
        <vehicle id="veh11" lane="G3b_0" pos="258.20" x="440.64" y="997.05" speed="25.58"/>
        <vehicle id="veh12" lane="G3b_0" pos="228.91" x="411.35" y="996.86" speed="25.20"/>
        <vehicle id="veh13" lane="G3b_0" pos="199.17" x="381.61" y="996.66" speed="24.93"/>
        <vehicle id="veh14" lane="G3b_0" pos="169.51" x="351.96" y="996.47" speed="24.70"/>
        <vehicle id="veh15" lane="G3b_0" pos="139.36" x="321.81" y="996.27" speed="24.58"/>
        <vehicle id="veh16" lane="G3b_0" pos="108.51" x="290.96" y="996.07" speed="23.31"/>
        <vehicle id="veh17" lane="G3b_0" pos="81.96" x="264.41" y="995.90" speed="20.20"/>
        <vehicle id="veh18" lane="G3b_0" pos="58.48" x="240.93" y="995.75" speed="16.90"/>
        <vehicle id="veh19" lane="G3b_0" pos="38.80" x="221.25" y="995.62" speed="13.50"/>
        <vehicle id="veh2" lane="G3b_0" pos="536.73" x="719.17" y="998.85" speed="29.54"/>
        <vehicle id="veh20" lane="G3b_0" pos="23.74" x="206.19" y="995.52" speed="10.28"/>
        <vehicle id="veh21" lane="G3b_0" pos="12.76" x="195.21" y="995.45" speed="7.16"/>
        <vehicle id="veh22" lane="G3b_0" pos="5.84" x="188.29" y="995.41" speed="3.84"/>
        <vehicle id="veh3" lane="G3b_0" pos="503.44" x="685.88" y="998.64" speed="29.23"/>
        <vehicle id="veh4" lane="G3b_0" pos="470.79" x="653.23" y="998.43" speed="28.87"/>
        <vehicle id="veh5" lane="G3b_0" pos="438.82" x="621.27" y="998.22" speed="28.45"/>
        <vehicle id="veh6" lane="G3b_0" pos="407.58" x="590.02" y="998.02" speed="27.99"/>
        <vehicle id="veh7" lane="G3b_0" pos="377.05" x="559.49" y="997.82" speed="27.47"/>
        <vehicle id="veh8" lane="G3b_0" pos="347.09" x="529.53" y="997.62" speed="26.94"/>
        <vehicle id="veh9" lane="G3b_0" pos="317.36" x="499.81" y="997.43" speed="26.44"/>
    </timestep>
    <timestep time="21.00" id="veh5" vType="">
        <vehicle id="veh0" lane="G3b_0" pos="635.10" x="817.54" y="999.49" speed="30.00"/>
        <vehicle id="veh1" lane="G3b_0" pos="600.45" x="782.88" y="999.27" speed="29.82"/>
        <vehicle id="veh10" lane="G3b_0" pos="313.87" x="496.31" y="997.41" speed="26.35"/>
        <vehicle id="veh11" lane="G3b_0" pos="283.98" x="466.43" y="997.21" speed="25.95"/>
        <vehicle id="veh12" lane="G3b_0" pos="254.31" x="436.76" y="997.02" speed="25.57"/>
        <vehicle id="veh13" lane="G3b_0" pos="224.31" x="406.75" y="996.83" speed="25.30"/>
        <vehicle id="veh14" lane="G3b_0" pos="194.41" x="376.85" y="996.63" speed="25.05"/>
        <vehicle id="veh15" lane="G3b_0" pos="164.12" x="346.57" y="996.44" speed="24.90"/>
        <vehicle id="veh16" lane="G3b_0" pos="132.98" x="315.43" y="996.23" speed="24.91"/>
        <vehicle id="veh17" lane="G3b_0" pos="103.59" x="286.03" y="996.04" speed="22.80"/>
        <vehicle id="veh18" lane="G3b_0" pos="76.80" x="259.25" y="995.87" speed="19.50"/>
        <vehicle id="veh19" lane="G3b_0" pos="53.73" x="236.18" y="995.72" speed="16.10"/>
        <vehicle id="veh2" lane="G3b_0" pos="566.30" x="748.74" y="999.05" speed="29.59"/>
        <vehicle id="veh20" lane="G3b_0" pos="35.46" x="217.91" y="995.60" speed="12.88"/>
        <vehicle id="veh21" lane="G3b_0" pos="21.35" x="203.80" y="995.51" speed="9.76"/>
        <vehicle id="veh22" lane="G3b_0" pos="11.11" x="193.56" y="995.44" speed="6.44"/>
        <vehicle id="veh23" lane="G3b_0" pos="5.10" x="187.55" y="995.40" speed="3.27"/>
        <vehicle id="veh3" lane="G3b_0" pos="532.72" x="715.16" y="998.83" speed="29.32"/>
        <vehicle id="veh4" lane="G3b_0" pos="499.73" x="682.17" y="998.61" speed="28.99"/>
        <vehicle id="veh5" lane="G3b_0" pos="467.37" x="649.81" y="998.40" speed="28.62"/>
        <vehicle id="veh6" lane="G3b_0" pos="435.68" x="618.12" y="998.20" speed="28.19"/>
        <vehicle id="veh7" lane="G3b_0" pos="404.67" x="587.11" y="998.00" speed="27.73"/>
        <vehicle id="veh8" lane="G3b_0" pos="374.20" x="556.64" y="997.80" speed="27.24"/>
        <vehicle id="veh9" lane="G3b_0" pos="343.99" x="526.43" y="997.60" speed="26.77"/>
    </timestep>
    <timestep time="22.00" id="veh5" vType="">
        <vehicle id="veh0" lane="G3b_0" pos="665.10" x="847.54" y="999.69" speed="30.00"/>
        <vehicle id="veh1" lane="G3b_0" pos="630.28" x="812.72" y="999.46" speed="29.84"/>
        <vehicle id="veh10" lane="G3b_0" pos="340.40" x="522.84" y="997.58" speed="26.67"/>
        <vehicle id="veh11" lane="G3b_0" pos="310.12" x="492.57" y="997.38" speed="26.29"/>
        <vehicle id="veh12" lane="G3b_0" pos="280.08" x="462.52" y="997.19" speed="25.92"/>
        <vehicle id="veh13" lane="G3b_0" pos="249.80" x="432.24" y="996.99" speed="25.65"/>
        <vehicle id="veh14" lane="G3b_0" pos="219.64" x="402.09" y="996.80" speed="25.39"/>
        <vehicle id="veh15" lane="G3b_0" pos="189.19" x="371.64" y="996.60" speed="25.21"/>
        <vehicle id="veh16" lane="G3b_0" pos="158.04" x="340.49" y="996.40" speed="25.18"/>
        <vehicle id="veh17" lane="G3b_0" pos="127.76" x="310.21" y="996.20" speed="25.01"/>
        <vehicle id="veh18" lane="G3b_0" pos="97.73" x="280.18" y="996.00" speed="22.10"/>
        <vehicle id="veh19" lane="G3b_0" pos="71.26" x="253.71" y="995.83" speed="18.70"/>
        <vehicle id="veh2" lane="G3b_0" pos="595.92" x="778.36" y="999.24" speed="29.64"/>
        <vehicle id="veh20" lane="G3b_0" pos="49.77" x="232.22" y="995.69" speed="15.48"/>
        <vehicle id="veh21" lane="G3b_0" pos="32.54" x="214.99" y="995.58" speed="12.36"/>
        <vehicle id="veh22" lane="G3b_0" pos="18.98" x="201.43" y="995.49" speed="9.04"/>
        <vehicle id="veh23" lane="G3b_0" pos="9.54" x="191.99" y="995.43" speed="5.61"/>
        <vehicle id="veh3" lane="G3b_0" pos="562.08" x="744.52" y="999.02" speed="29.39"/>
        <vehicle id="veh4" lane="G3b_0" pos="528.78" x="711.22" y="998.80" speed="29.10"/>
        <vehicle id="veh5" lane="G3b_0" pos="496.07" x="678.51" y="998.59" speed="28.77"/>
        <vehicle id="veh6" lane="G3b_0" pos="463.98" x="646.42" y="998.38" speed="28.38"/>
        <vehicle id="veh7" lane="G3b_0" pos="432.52" x="614.96" y="998.18" speed="27.95"/>
        <vehicle id="veh8" lane="G3b_0" pos="401.58" x="584.03" y="997.98" speed="27.51"/>
        <vehicle id="veh9" lane="G3b_0" pos="370.93" x="553.37" y="997.78" speed="27.07"/>
    </timestep>
    <timestep time="23.00" id="veh5" vType="">
        <vehicle id="veh0" lane="G3b_0" pos="695.10" x="877.54" y="999.88" speed="30.00"/>
        <vehicle id="veh1" lane="G3b_0" pos="660.13" x="842.57" y="999.66" speed="29.86"/>
        <vehicle id="veh10" lane="G3b_0" pos="367.24" x="549.68" y="997.75" speed="26.97"/>
        <vehicle id="veh11" lane="G3b_0" pos="336.59" x="519.03" y="997.55" speed="26.60"/>
        <vehicle id="veh12" lane="G3b_0" pos="306.18" x="488.63" y="997.36" speed="26.25"/>
        <vehicle id="veh13" lane="G3b_0" pos="275.62" x="458.06" y="997.16" speed="25.97"/>
        <vehicle id="veh14" lane="G3b_0" pos="245.21" x="427.65" y="996.96" speed="25.70"/>
        <vehicle id="veh15" lane="G3b_0" pos="214.57" x="397.02" y="996.76" speed="25.51"/>
        <vehicle id="veh16" lane="G3b_0" pos="183.36" x="365.81" y="996.56" speed="25.44"/>
        <vehicle id="veh17" lane="G3b_0" pos="152.91" x="335.36" y="996.36" speed="25.27"/>
        <vehicle id="veh18" lane="G3b_0" pos="121.25" x="303.70" y="996.16" speed="24.70"/>
        <vehicle id="veh19" lane="G3b_0" pos="91.38" x="273.83" y="995.96" speed="21.30"/>
        <vehicle id="veh2" lane="G3b_0" pos="625.59" x="808.03" y="999.43" speed="29.68"/>
        <vehicle id="veh20" lane="G3b_0" pos="66.69" x="249.13" y="995.80" speed="18.08"/>
        <vehicle id="veh21" lane="G3b_0" pos="46.33" x="228.78" y="995.67" speed="14.96"/>
        <vehicle id="veh22" lane="G3b_0" pos="29.45" x="211.90" y="995.56" speed="11.64"/>
        <vehicle id="veh23" lane="G3b_0" pos="16.58" x="199.03" y="995.48" speed="8.21"/>
        <vehicle id="veh24" lane="G3b_0" pos="8.02" x="190.47" y="995.42" speed="4.95"/>
        <vehicle id="veh3" lane="G3b_0" pos="591.51" x="773.95" y="999.21" speed="29.46"/>
        <vehicle id="veh4" lane="G3b_0" pos="557.94" x="740.38" y="998.99" speed="29.20"/>
        <vehicle id="veh5" lane="G3b_0" pos="524.91" x="707.35" y="998.78" speed="28.90"/>
        <vehicle id="veh6" lane="G3b_0" pos="492.45" x="674.89" y="998.57" speed="28.55"/>
        <vehicle id="veh7" lane="G3b_0" pos="460.59" x="643.03" y="998.36" speed="28.16"/>
        <vehicle id="veh8" lane="G3b_0" pos="429.22" x="611.66" y="998.16" speed="27.75"/>
        <vehicle id="veh9" lane="G3b_0" pos="398.15" x="580.59" y="997.95" speed="27.34"/>
    </timestep>
    <timestep time="24.00" id="veh5" vType="">
        <vehicle id="veh0" lane="G3b_0" pos="725.10" x="907.54" y="1000.08" speed="30.00"/>
        <vehicle id="veh1" lane="G3b_0" pos="690.00" x="872.44" y="999.85" speed="29.88"/>
        <vehicle id="veh10" lane="G3b_0" pos="394.35" x="576.79" y="997.93" speed="27.23"/>
        <vehicle id="veh11" lane="G3b_0" pos="363.35" x="545.79" y="997.73" speed="26.89"/>
        <vehicle id="veh12" lane="G3b_0" pos="332.60" x="515.04" y="997.53" speed="26.55"/>
        <vehicle id="veh13" lane="G3b_0" pos="301.76" x="484.20" y="997.33" speed="26.27"/>
        <vehicle id="veh14" lane="G3b_0" pos="271.08" x="453.52" y="997.13" speed="26.00"/>
        <vehicle id="veh15" lane="G3b_0" pos="240.25" x="422.69" y="996.93" speed="25.80"/>
        <vehicle id="veh16" lane="G3b_0" pos="208.95" x="391.39" y="996.73" speed="25.70"/>
        <vehicle id="veh17" lane="G3b_0" pos="178.32" x="360.76" y="996.53" speed="25.51"/>
        <vehicle id="veh18" lane="G3b_0" pos="146.63" x="329.08" y="996.32" speed="25.52"/>
        <vehicle id="veh19" lane="G3b_0" pos="114.11" x="296.56" y="996.11" speed="23.90"/>
        <vehicle id="veh2" lane="G3b_0" pos="655.29" x="837.73" y="999.62" speed="29.72"/>
        <vehicle id="veh20" lane="G3b_0" pos="86.20" x="268.65" y="995.93" speed="20.68"/>
        <vehicle id="veh21" lane="G3b_0" pos="62.72" x="245.17" y="995.78" speed="17.56"/>
        <vehicle id="veh22" lane="G3b_0" pos="42.52" x="224.97" y="995.65" speed="14.24"/>
        <vehicle id="veh23" lane="G3b_0" pos="26.22" x="208.67" y="995.54" speed="10.81"/>
        <vehicle id="veh24" lane="G3b_0" pos="14.40" x="196.85" y="995.46" speed="7.55"/>
        <vehicle id="veh25" lane="G3b_0" pos="6.69" x="189.14" y="995.41" speed="4.36"/>
        <vehicle id="veh3" lane="G3b_0" pos="621.01" x="803.45" y="999.40" speed="29.52"/>
        <vehicle id="veh4" lane="G3b_0" pos="587.19" x="769.63" y="999.18" speed="29.29"/>
        <vehicle id="veh5" lane="G3b_0" pos="553.87" x="736.31" y="998.97" speed="29.01"/>
        <vehicle id="veh6" lane="G3b_0" pos="521.08" x="703.52" y="998.75" speed="28.70"/>
        <vehicle id="veh7" lane="G3b_0" pos="488.85" x="671.29" y="998.54" speed="28.34"/>
        <vehicle id="veh8" lane="G3b_0" pos="457.09" x="639.53" y="998.34" speed="27.96"/>
        <vehicle id="veh9" lane="G3b_0" pos="425.63" x="608.07" y="998.13" speed="27.59"/>
    </timestep>
    <timestep time="25.00" id="veh5" vType="">
        <vehicle id="veh0" lane="G3b_0" pos="755.10" x="937.54" y="1000.27" speed="30.00"/>
        <vehicle id="veh1" lane="G3b_0" pos="719.89" x="902.33" y="1000.04" speed="29.89"/>
        <vehicle id="veh10" lane="G3b_0" pos="421.72" x="604.16" y="998.11" speed="27.48"/>
        <vehicle id="veh11" lane="G3b_0" pos="390.38" x="572.82" y="997.90" speed="27.15"/>
        <vehicle id="veh12" lane="G3b_0" pos="359.30" x="541.74" y="997.70" speed="26.82"/>
        <vehicle id="veh13" lane="G3b_0" pos="328.18" x="510.62" y="997.50" speed="26.55"/>
        <vehicle id="veh14" lane="G3b_0" pos="297.24" x="479.68" y="997.30" speed="26.29"/>
        <vehicle id="veh15" lane="G3b_0" pos="266.20" x="448.64" y="997.10" speed="26.08"/>
        <vehicle id="veh16" lane="G3b_0" pos="234.79" x="417.23" y="996.89" speed="25.95"/>
        <vehicle id="veh17" lane="G3b_0" pos="203.97" x="386.41" y="996.69" speed="25.76"/>
        <vehicle id="veh18" lane="G3b_0" pos="172.26" x="354.71" y="996.49" speed="25.73"/>
        <vehicle id="veh19" lane="G3b_0" pos="139.33" x="321.78" y="996.27" speed="25.89"/>
        <vehicle id="veh2" lane="G3b_0" pos="685.03" x="867.47" y="999.82" speed="29.75"/>
        <vehicle id="veh20" lane="G3b_0" pos="108.31" x="290.76" y="996.07" speed="23.28"/>
        <vehicle id="veh21" lane="G3b_0" pos="81.71" x="264.16" y="995.90" speed="20.16"/>
        <vehicle id="veh22" lane="G3b_0" pos="58.19" x="240.64" y="995.75" speed="16.84"/>
        <vehicle id="veh23" lane="G3b_0" pos="38.46" x="220.91" y="995.62" speed="13.41"/>
        <vehicle id="veh24" lane="G3b_0" pos="23.38" x="205.83" y="995.52" speed="10.15"/>
        <vehicle id="veh25" lane="G3b_0" pos="12.47" x="194.92" y="995.45" speed="6.96"/>
        <vehicle id="veh26" lane="G3b_0" pos="5.78" x="188.23" y="995.41" speed="3.53"/>
        <vehicle id="veh3" lane="G3b_0" pos="650.56" x="833.00" y="999.59" speed="29.58"/>
        <vehicle id="veh4" lane="G3b_0" pos="616.52" x="798.96" y="999.37" speed="29.37"/>
        <vehicle id="veh5" lane="G3b_0" pos="582.94" x="765.38" y="999.15" speed="29.12"/>
        <vehicle id="veh6" lane="G3b_0" pos="549.86" x="732.29" y="998.94" speed="28.83"/>
        <vehicle id="veh7" lane="G3b_0" pos="517.28" x="699.72" y="998.73" speed="28.51"/>
        <vehicle id="veh8" lane="G3b_0" pos="485.16" x="667.60" y="998.52" speed="28.16"/>
        <vehicle id="veh9" lane="G3b_0" pos="453.34" x="635.78" y="998.31" speed="27.81"/>
    </timestep>
    <timestep time="26.00" id="veh5" vType="">
        <vehicle id="veh0" lane="G3b_0" pos="785.10" x="967.53" y="1000.47" speed="30.00"/>
        <vehicle id="veh1" lane="G3b_0" pos="749.79" x="932.23" y="1000.24" speed="29.91"/>
        <vehicle id="veh10" lane="G3b_0" pos="449.32" x="631.77" y="998.29" speed="27.70"/>
        <vehicle id="veh11" lane="G3b_0" pos="417.66" x="600.10" y="998.08" speed="27.39"/>
        <vehicle id="veh12" lane="G3b_0" pos="386.27" x="568.71" y="997.88" speed="27.08"/>
        <vehicle id="veh13" lane="G3b_0" pos="354.88" x="537.32" y="997.67" speed="26.81"/>
        <vehicle id="veh14" lane="G3b_0" pos="323.67" x="506.12" y="997.47" speed="26.55"/>
        <vehicle id="veh15" lane="G3b_0" pos="292.42" x="474.86" y="997.27" speed="26.34"/>
        <vehicle id="veh16" lane="G3b_0" pos="260.87" x="443.32" y="997.06" speed="26.20"/>
        <vehicle id="veh17" lane="G3b_0" pos="229.86" x="412.30" y="996.86" speed="26.00"/>
        <vehicle id="veh18" lane="G3b_0" pos="198.11" x="380.55" y="996.66" speed="25.94"/>
        <vehicle id="veh19" lane="G3b_0" pos="165.31" x="347.75" y="996.44" speed="26.05"/>
        <vehicle id="veh2" lane="G3b_0" pos="714.80" x="897.24" y="1000.01" speed="29.78"/>
        <vehicle id="veh20" lane="G3b_0" pos="133.03" x="315.48" y="996.23" speed="25.88"/>
        <vehicle id="veh21" lane="G3b_0" pos="103.31" x="285.75" y="996.04" speed="22.76"/>
        <vehicle id="veh22" lane="G3b_0" pos="76.46" x="258.91" y="995.87" speed="19.44"/>
        <vehicle id="veh23" lane="G3b_0" pos="53.30" x="235.75" y="995.72" speed="16.01"/>
        <vehicle id="veh24" lane="G3b_0" pos="34.95" x="217.40" y="995.60" speed="12.75"/>
        <vehicle id="veh25" lane="G3b_0" pos="20.86" x="203.31" y="995.51" speed="9.56"/>
        <vehicle id="veh26" lane="G3b_0" pos="10.74" x="193.18" y="995.44" speed="6.13"/>
        <vehicle id="veh3" lane="G3b_0" pos="680.17" x="862.61" y="999.79" speed="29.63"/>
        <vehicle id="veh4" lane="G3b_0" pos="645.93" x="828.36" y="999.56" speed="29.44"/>
        <vehicle id="veh5" lane="G3b_0" pos="612.11" x="794.55" y="999.34" speed="29.21"/>
        <vehicle id="veh6" lane="G3b_0" pos="578.75" x="761.19" y="999.13" speed="28.95"/>
        <vehicle id="veh7" lane="G3b_0" pos="545.87" x="728.31" y="998.91" speed="28.65"/>
        <vehicle id="veh8" lane="G3b_0" pos="513.42" x="695.86" y="998.70" speed="28.34"/>
        <vehicle id="veh9" lane="G3b_0" pos="481.26" x="663.70" y="998.49" speed="28.01"/>
    </timestep>
    <timestep time="27.00" id="veh5" vType="">
        <vehicle id="veh0" lane="G3b_0" pos="815.10" x="997.53" y="1000.66" speed="30.00"/>
        <vehicle id="veh1" lane="G3b_0" pos="779.71" x="962.14" y="1000.43" speed="29.92"/>
        <vehicle id="veh10" lane="G3b_0" pos="477.14" x="659.58" y="998.47" speed="27.91"/>
        <vehicle id="veh11" lane="G3b_0" pos="445.18" x="627.62" y="998.26" speed="27.61"/>
        <vehicle id="veh12" lane="G3b_0" pos="413.48" x="595.92" y="998.05" speed="27.32"/>
        <vehicle id="veh13" lane="G3b_0" pos="381.82" x="564.27" y="997.85" speed="27.06"/>
        <vehicle id="veh14" lane="G3b_0" pos="350.36" x="532.81" y="997.64" speed="26.80"/>
        <vehicle id="veh15" lane="G3b_0" pos="318.89" x="501.34" y="997.44" speed="26.58"/>
        <vehicle id="veh16" lane="G3b_0" pos="287.20" x="469.64" y="997.23" speed="26.43"/>
        <vehicle id="veh17" lane="G3b_0" pos="255.98" x="438.43" y="997.03" speed="26.23"/>
        <vehicle id="veh18" lane="G3b_0" pos="224.16" x="406.61" y="996.83" speed="26.15"/>
        <vehicle id="veh19" lane="G3b_0" pos="191.45" x="373.90" y="996.61" speed="26.21"/>
        <vehicle id="veh2" lane="G3b_0" pos="744.60" x="927.04" y="1000.20" speed="29.81"/>
        <vehicle id="veh20" lane="G3b_0" pos="159.18" x="341.62" y="996.40" speed="26.21"/>
        <vehicle id="veh21" lane="G3b_0" pos="127.50" x="309.94" y="996.20" speed="25.36"/>
        <vehicle id="veh22" lane="G3b_0" pos="97.33" x="279.77" y="996.00" speed="22.04"/>
        <vehicle id="veh23" lane="G3b_0" pos="70.74" x="253.19" y="995.83" speed="18.61"/>
        <vehicle id="veh24" lane="G3b_0" pos="49.13" x="231.58" y="995.69" speed="15.35"/>
        <vehicle id="veh25" lane="G3b_0" pos="31.85" x="214.29" y="995.58" speed="12.16"/>
        <vehicle id="veh26" lane="G3b_0" pos="18.29" x="200.74" y="995.49" speed="8.73"/>
        <vehicle id="veh27" lane="G3b_0" pos="9.08" x="191.53" y="995.43" speed="5.46"/>
        <vehicle id="veh3" lane="G3b_0" pos="709.82" x="892.26" y="999.98" speed="29.67"/>
        <vehicle id="veh4" lane="G3b_0" pos="675.40" x="857.83" y="999.75" speed="29.50"/>
        <vehicle id="veh5" lane="G3b_0" pos="641.37" x="823.80" y="999.53" speed="29.29"/>
        <vehicle id="veh6" lane="G3b_0" pos="607.76" x="790.20" y="999.32" speed="29.06"/>
        <vehicle id="veh7" lane="G3b_0" pos="574.60" x="757.04" y="999.10" speed="28.79"/>
        <vehicle id="veh8" lane="G3b_0" pos="541.84" x="724.28" y="998.89" speed="28.49"/>
        <vehicle id="veh9" lane="G3b_0" pos="509.38" x="691.82" y="998.68" speed="28.20"/>
    </timestep>
    <timestep time="28.00" id="veh5" vType="">
        <vehicle id="veh0" lane="G3b_0" pos="845.10" x="1027.53" y="1000.86" speed="30.00"/>
        <vehicle id="veh1" lane="G3b_0" pos="809.63" x="992.07" y="1000.63" speed="29.93"/>
        <vehicle id="veh10" lane="G3b_0" pos="505.15" x="687.59" y="998.65" speed="28.09"/>
        <vehicle id="veh11" lane="G3b_0" pos="472.90" x="655.34" y="998.44" speed="27.81"/>
        <vehicle id="veh12" lane="G3b_0" pos="440.92" x="623.36" y="998.23" speed="27.53"/>
        <vehicle id="veh13" lane="G3b_0" pos="409.00" x="591.45" y="998.02" speed="27.28"/>
        <vehicle id="veh14" lane="G3b_0" pos="377.29" x="559.74" y="997.82" speed="27.04"/>
        <vehicle id="veh15" lane="G3b_0" pos="345.61" x="528.05" y="997.61" speed="26.82"/>
        <vehicle id="veh16" lane="G3b_0" pos="313.76" x="496.20" y="997.41" speed="26.66"/>
        <vehicle id="veh17" lane="G3b_0" pos="282.34" x="464.78" y="997.20" speed="26.45"/>
        <vehicle id="veh18" lane="G3b_0" pos="250.42" x="432.87" y="997.00" speed="26.35"/>
        <vehicle id="veh19" lane="G3b_0" pos="217.76" x="400.20" y="996.78" speed="26.38"/>
        <vehicle id="veh2" lane="G3b_0" pos="774.42" x="956.86" y="1000.40" speed="29.83"/>
        <vehicle id="veh20" lane="G3b_0" pos="185.46" x="367.91" y="996.57" speed="26.35"/>
        <vehicle id="veh21" lane="G3b_0" pos="153.62" x="336.07" y="996.37" speed="26.27"/>
        <vehicle id="veh22" lane="G3b_0" pos="120.80" x="303.24" y="996.15" speed="24.64"/>
        <vehicle id="veh23" lane="G3b_0" pos="90.78" x="273.23" y="995.96" speed="21.21"/>
        <vehicle id="veh24" lane="G3b_0" pos="65.91" x="248.36" y="995.80" speed="17.95"/>
        <vehicle id="veh25" lane="G3b_0" pos="45.43" x="227.88" y="995.66" speed="14.76"/>
        <vehicle id="veh26" lane="G3b_0" pos="28.45" x="210.90" y="995.55" speed="11.33"/>
        <vehicle id="veh27" lane="G3b_0" pos="15.97" x="198.42" y="995.47" speed="8.06"/>
        <vehicle id="veh28" lane="G3b_0" pos="7.63" x="190.08" y="995.42" speed="4.86"/>
        <vehicle id="veh3" lane="G3b_0" pos="739.51" x="921.95" y="1000.17" speed="29.71"/>
        <vehicle id="veh4" lane="G3b_0" pos="704.93" x="887.36" y="999.95" speed="29.55"/>
        <vehicle id="veh5" lane="G3b_0" pos="670.70" x="853.14" y="999.72" speed="29.37"/>
        <vehicle id="veh6" lane="G3b_0" pos="636.87" x="819.31" y="999.50" speed="29.15"/>
        <vehicle id="veh7" lane="G3b_0" pos="603.45" x="785.89" y="999.29" speed="28.91"/>
        <vehicle id="veh8" lane="G3b_0" pos="570.42" x="752.85" y="999.07" speed="28.64"/>
        <vehicle id="veh9" lane="G3b_0" pos="537.67" x="720.11" y="998.86" speed="28.36"/>
    </timestep>
    <timestep time="29.00" id="veh5" vType="">
        <vehicle id="veh0" lane="G3b_0" pos="875.10" x="1057.53" y="1001.05" speed="30.00"/>
        <vehicle id="veh1" lane="G3b_0" pos="839.57" x="1022.00" y="1000.82" speed="29.94"/>
        <vehicle id="veh10" lane="G3b_0" pos="533.33" x="715.77" y="998.83" speed="28.26"/>
        <vehicle id="veh11" lane="G3b_0" pos="500.82" x="683.26" y="998.62" speed="28.00"/>
        <vehicle id="veh12" lane="G3b_0" pos="468.56" x="651.01" y="998.41" speed="27.74"/>
        <vehicle id="veh13" lane="G3b_0" pos="436.40" x="618.85" y="998.20" speed="27.49"/>
        <vehicle id="veh14" lane="G3b_0" pos="404.45" x="586.89" y="998.00" speed="27.25"/>
        <vehicle id="veh15" lane="G3b_0" pos="372.55" x="554.99" y="997.79" speed="27.04"/>
        <vehicle id="veh16" lane="G3b_0" pos="340.53" x="522.97" y="997.58" speed="26.87"/>
        <vehicle id="veh17" lane="G3b_0" pos="308.91" x="491.35" y="997.38" speed="26.67"/>
        <vehicle id="veh18" lane="G3b_0" pos="276.89" x="459.33" y="997.17" speed="26.55"/>
        <vehicle id="veh19" lane="G3b_0" pos="244.23" x="426.68" y="996.96" speed="26.55"/>
        <vehicle id="veh2" lane="G3b_0" pos="804.27" x="986.70" y="1000.59" speed="29.85"/>
        <vehicle id="veh20" lane="G3b_0" pos="211.90" x="394.35" y="996.75" speed="26.50"/>
        <vehicle id="veh21" lane="G3b_0" pos="179.96" x="362.41" y="996.54" speed="26.41"/>
        <vehicle id="veh22" lane="G3b_0" pos="146.72" x="329.17" y="996.32" speed="26.52"/>
        <vehicle id="veh23" lane="G3b_0" pos="113.43" x="295.87" y="996.11" speed="23.81"/>
        <vehicle id="veh24" lane="G3b_0" pos="85.29" x="267.74" y="995.92" speed="20.55"/>
        <vehicle id="veh25" lane="G3b_0" pos="61.62" x="244.07" y="995.77" speed="17.36"/>
        <vehicle id="veh26" lane="G3b_0" pos="41.20" x="223.65" y="995.64" speed="13.93"/>
        <vehicle id="veh27" lane="G3b_0" pos="25.46" x="207.91" y="995.54" speed="10.66"/>
        <vehicle id="veh28" lane="G3b_0" pos="13.92" x="196.37" y="995.46" speed="7.46"/>
        <vehicle id="veh29" lane="G3b_0" pos="6.33" x="188.78" y="995.41" speed="4.36"/>
        <vehicle id="veh3" lane="G3b_0" pos="769.24" x="951.67" y="1000.36" speed="29.74"/>
        <vehicle id="veh4" lane="G3b_0" pos="734.51" x="916.94" y="1000.14" speed="29.60"/>
        <vehicle id="veh5" lane="G3b_0" pos="700.11" x="882.54" y="999.91" speed="29.43"/>
        <vehicle id="veh6" lane="G3b_0" pos="666.07" x="848.51" y="999.69" speed="29.24"/>
        <vehicle id="veh7" lane="G3b_0" pos="632.42" x="814.86" y="999.48" speed="29.01"/>
        <vehicle id="veh8" lane="G3b_0" pos="599.13" x="781.57" y="999.26" speed="28.77"/>
        <vehicle id="veh9" lane="G3b_0" pos="566.12" x="748.55" y="999.04" speed="28.51"/>
    </timestep>
    <timestep time="30.00" id="veh5" vType="">
        <vehicle id="veh0" lane="G3b_0" pos="905.10" x="1087.53" y="1001.25" speed="30.00"/>
        <vehicle id="veh1" lane="G3b_0" pos="869.51" x="1051.94" y="1001.01" speed="29.95"/>
        <vehicle id="veh10" lane="G3b_0" pos="561.68" x="744.12" y="999.02" speed="28.41"/>
        <vehicle id="veh11" lane="G3b_0" pos="528.91" x="711.35" y="998.80" speed="28.17"/>
        <vehicle id="veh12" lane="G3b_0" pos="496.40" x="678.84" y="998.59" speed="27.92"/>
        <vehicle id="veh13" lane="G3b_0" pos="464.01" x="646.45" y="998.38" speed="27.69"/>
        <vehicle id="veh14" lane="G3b_0" pos="431.82" x="614.26" y="998.17" speed="27.46"/>
        <vehicle id="veh15" lane="G3b_0" pos="399.70" x="582.14" y="997.96" speed="27.25"/>
        <vehicle id="veh16" lane="G3b_0" pos="367.51" x="549.96" y="997.76" speed="27.07"/>
        <vehicle id="veh17" lane="G3b_0" pos="335.69" x="518.13" y="997.55" speed="26.87"/>
        <vehicle id="veh18" lane="G3b_0" pos="303.55" x="485.99" y="997.34" speed="26.75"/>
        <vehicle id="veh19" lane="G3b_0" pos="270.88" x="453.32" y="997.13" speed="26.72"/>
        <vehicle id="veh2" lane="G3b_0" pos="834.13" x="1016.56" y="1000.78" speed="29.87"/>
        <vehicle id="veh20" lane="G3b_0" pos="238.49" x="420.93" y="996.92" speed="26.66"/>
        <vehicle id="veh21" lane="G3b_0" pos="206.45" x="388.89" y="996.71" speed="26.55"/>
        <vehicle id="veh22" lane="G3b_0" pos="173.30" x="355.75" y="996.49" speed="26.63"/>
        <vehicle id="veh23" lane="G3b_0" pos="138.67" x="321.11" y="996.27" speed="26.41"/>
        <vehicle id="veh24" lane="G3b_0" pos="107.27" x="289.72" y="996.07" speed="23.15"/>
        <vehicle id="veh25" lane="G3b_0" pos="80.40" x="262.85" y="995.89" speed="19.96"/>
        <vehicle id="veh26" lane="G3b_0" pos="56.56" x="239.01" y="995.74" speed="16.53"/>
        <vehicle id="veh27" lane="G3b_0" pos="37.55" x="220.00" y="995.61" speed="13.26"/>
        <vehicle id="veh28" lane="G3b_0" pos="22.82" x="205.27" y="995.52" speed="10.06"/>
        <vehicle id="veh29" lane="G3b_0" pos="12.12" x="194.57" y="995.45" speed="6.96"/>
        <vehicle id="veh3" lane="G3b_0" pos="798.99" x="981.43" y="1000.56" speed="29.77"/>
        <vehicle id="veh30" lane="G3b_0" pos="5.47" x="187.92" y="995.41" speed="3.67"/>
        <vehicle id="veh4" lane="G3b_0" pos="764.13" x="946.57" y="1000.33" speed="29.65"/>
        <vehicle id="veh5" lane="G3b_0" pos="729.58" x="912.01" y="1000.11" speed="29.49"/>
        <vehicle id="veh6" lane="G3b_0" pos="695.36" x="877.79" y="999.88" speed="29.32"/>
        <vehicle id="veh7" lane="G3b_0" pos="661.49" x="843.93" y="999.66" speed="29.11"/>
        <vehicle id="veh8" lane="G3b_0" pos="627.96" x="810.40" y="999.45" speed="28.89"/>
        <vehicle id="veh9" lane="G3b_0" pos="594.71" x="777.14" y="999.23" speed="28.65"/>
    </timestep>
    <timestep time="31.00" id="veh5" vType="">
        <vehicle id="veh0" lane="G3b_0" pos="935.10" x="1117.53" y="1001.44" speed="30.00"/>
        <vehicle id="veh1" lane="G3b_0" pos="899.46" x="1081.89" y="1001.21" speed="29.95"/>
        <vehicle id="veh10" lane="G3b_0" pos="590.17" x="772.61" y="999.20" speed="28.56"/>
        <vehicle id="veh11" lane="G3b_0" pos="557.17" x="739.61" y="998.99" speed="28.33"/>
        <vehicle id="veh12" lane="G3b_0" pos="524.42" x="706.86" y="998.77" speed="28.09"/>
        <vehicle id="veh13" lane="G3b_0" pos="491.80" x="674.24" y="998.56" speed="27.87"/>
        <vehicle id="veh14" lane="G3b_0" pos="459.38" x="641.82" y="998.35" speed="27.65"/>
        <vehicle id="veh15" lane="G3b_0" pos="427.06" x="609.50" y="998.14" speed="27.44"/>
        <vehicle id="veh16" lane="G3b_0" pos="394.70" x="577.14" y="997.93" speed="27.27"/>
        <vehicle id="veh17" lane="G3b_0" pos="362.67" x="545.12" y="997.72" speed="27.07"/>
        <vehicle id="veh18" lane="G3b_0" pos="330.40" x="512.85" y="997.51" speed="26.94"/>
        <vehicle id="veh19" lane="G3b_0" pos="297.69" x="480.13" y="997.30" speed="26.89"/>
        <vehicle id="veh2" lane="G3b_0" pos="864.01" x="1046.44" y="1000.98" speed="29.88"/>
        <vehicle id="veh20" lane="G3b_0" pos="265.23" x="447.67" y="997.09" speed="26.81"/>
        <vehicle id="veh21" lane="G3b_0" pos="233.08" x="415.53" y="996.88" speed="26.70"/>
        <vehicle id="veh22" lane="G3b_0" pos="199.99" x="382.44" y="996.67" speed="26.74"/>
        <vehicle id="veh23" lane="G3b_0" pos="165.59" x="348.04" y="996.44" speed="26.98"/>
        <vehicle id="veh24" lane="G3b_0" pos="131.85" x="314.30" y="996.23" speed="25.75"/>
        <vehicle id="veh25" lane="G3b_0" pos="101.79" x="284.24" y="996.03" speed="22.56"/>
        <vehicle id="veh26" lane="G3b_0" pos="74.51" x="256.96" y="995.85" speed="19.13"/>
        <vehicle id="veh27" lane="G3b_0" pos="52.24" x="234.69" y="995.71" speed="15.86"/>
        <vehicle id="veh28" lane="G3b_0" pos="34.31" x="216.76" y="995.59" speed="12.66"/>
        <vehicle id="veh29" lane="G3b_0" pos="20.51" x="202.96" y="995.50" speed="9.56"/>
        <vehicle id="veh3" lane="G3b_0" pos="828.78" x="1011.21" y="1000.75" speed="29.80"/>
        <vehicle id="veh30" lane="G3b_0" pos="10.56" x="193.01" y="995.44" speed="6.27"/>
        <vehicle id="veh4" lane="G3b_0" pos="793.80" x="976.23" y="1000.52" speed="29.68"/>
        <vehicle id="veh5" lane="G3b_0" pos="759.10" x="941.54" y="1000.30" speed="29.55"/>
        <vehicle id="veh6" lane="G3b_0" pos="724.71" x="907.15" y="1000.07" speed="29.39"/>
        <vehicle id="veh7" lane="G3b_0" pos="690.65" x="873.09" y="999.85" speed="29.20"/>
        <vehicle id="veh8" lane="G3b_0" pos="656.91" x="839.35" y="999.63" speed="28.99"/>
        <vehicle id="veh9" lane="G3b_0" pos="623.43" x="805.87" y="999.42" speed="28.78"/>
    </timestep>
    <timestep time="32.00" id="veh5" vType="">
        <vehicle id="veh0" lane="G3b_0" pos="965.10" x="1147.53" y="1001.63" speed="30.00"/>
        <vehicle id="veh1" lane="G3b_0" pos="929.41" x="1111.84" y="1001.40" speed="29.96"/>
        <vehicle id="veh10" lane="G3b_0" pos="618.80" x="801.24" y="999.39" speed="28.68"/>
        <vehicle id="veh11" lane="G3b_0" pos="585.58" x="768.01" y="999.17" speed="28.47"/>
        <vehicle id="veh12" lane="G3b_0" pos="552.60" x="735.04" y="998.96" speed="28.25"/>
        <vehicle id="veh13" lane="G3b_0" pos="519.76" x="702.20" y="998.74" speed="28.04"/>
        <vehicle id="veh14" lane="G3b_0" pos="487.12" x="669.57" y="998.53" speed="27.82"/>
        <vehicle id="veh15" lane="G3b_0" pos="454.60" x="637.04" y="998.32" speed="27.62"/>
        <vehicle id="veh16" lane="G3b_0" pos="422.07" x="604.51" y="998.11" speed="27.45"/>
        <vehicle id="veh17" lane="G3b_0" pos="389.85" x="572.29" y="997.90" speed="27.26"/>
        <vehicle id="veh18" lane="G3b_0" pos="357.44" x="539.88" y="997.69" speed="27.12"/>
        <vehicle id="veh19" lane="G3b_0" pos="324.67" x="507.11" y="997.48" speed="27.05"/>
        <vehicle id="veh2" lane="G3b_0" pos="893.90" x="1076.33" y="1001.17" speed="29.90"/>
        <vehicle id="veh20" lane="G3b_0" pos="292.12" x="474.57" y="997.27" speed="26.96"/>
        <vehicle id="veh21" lane="G3b_0" pos="259.86" x="442.31" y="997.06" speed="26.85"/>
        <vehicle id="veh22" lane="G3b_0" pos="226.80" x="409.25" y="996.84" speed="26.87"/>
        <vehicle id="veh23" lane="G3b_0" pos="192.61" x="375.05" y="996.62" speed="27.05"/>
        <vehicle id="veh24" lane="G3b_0" pos="158.69" x="341.14" y="996.40" speed="27.17"/>
        <vehicle id="veh25" lane="G3b_0" pos="125.78" x="308.22" y="996.19" speed="25.16"/>
        <vehicle id="veh26" lane="G3b_0" pos="95.07" x="277.52" y="995.99" speed="21.73"/>
        <vehicle id="veh27" lane="G3b_0" pos="69.54" x="251.98" y="995.82" speed="18.46"/>
        <vehicle id="veh28" lane="G3b_0" pos="48.41" x="230.85" y="995.68" speed="15.26"/>
        <vehicle id="veh29" lane="G3b_0" pos="31.50" x="213.95" y="995.57" speed="12.16"/>
        <vehicle id="veh3" lane="G3b_0" pos="858.59" x="1041.02" y="1000.94" speed="29.82"/>
        <vehicle id="veh30" lane="G3b_0" pos="18.26" x="200.71" y="995.49" speed="8.87"/>
        <vehicle id="veh31" lane="G3b_0" pos="9.10" x="191.55" y="995.43" speed="5.48"/>
        <vehicle id="veh4" lane="G3b_0" pos="823.50" x="1005.94" y="1000.72" speed="29.72"/>
        <vehicle id="veh5" lane="G3b_0" pos="788.67" x="971.11" y="1000.49" speed="29.60"/>
        <vehicle id="veh6" lane="G3b_0" pos="754.13" x="936.57" y="1000.27" speed="29.45"/>
        <vehicle id="veh7" lane="G3b_0" pos="719.90" x="902.33" y="1000.04" speed="29.28"/>
        <vehicle id="veh8" lane="G3b_0" pos="685.96" x="868.39" y="999.82" speed="29.09"/>
        <vehicle id="veh9" lane="G3b_0" pos="652.27" x="834.71" y="999.60" speed="28.89"/>
    </timestep>
    <timestep time="33.00" id="veh5" vType="">
        <vehicle id="veh0" lane="G3b_0" pos="995.10" x="1177.53" y="1001.83" speed="30.00"/>
        <vehicle id="veh1" lane="G3b_0" pos="959.37" x="1141.80" y="1001.60" speed="29.96"/>
        <vehicle id="veh10" lane="G3b_0" pos="647.55" x="829.99" y="999.57" speed="28.80"/>
        <vehicle id="veh11" lane="G3b_0" pos="614.12" x="796.56" y="999.36" speed="28.60"/>
        <vehicle id="veh12" lane="G3b_0" pos="580.93" x="763.37" y="999.14" speed="28.39"/>
        <vehicle id="veh13" lane="G3b_0" pos="547.88" x="730.32" y="998.93" speed="28.19"/>
        <vehicle id="veh14" lane="G3b_0" pos="515.04" x="697.48" y="998.71" speed="27.99"/>
        <vehicle id="veh15" lane="G3b_0" pos="482.32" x="664.76" y="998.50" speed="27.80"/>
        <vehicle id="veh16" lane="G3b_0" pos="449.61" x="632.05" y="998.29" speed="27.62"/>
        <vehicle id="veh17" lane="G3b_0" pos="417.20" x="599.65" y="998.08" speed="27.44"/>
        <vehicle id="veh18" lane="G3b_0" pos="384.65" x="567.10" y="997.87" speed="27.29"/>
        <vehicle id="veh19" lane="G3b_0" pos="351.81" x="534.25" y="997.65" speed="27.21"/>
        <vehicle id="veh2" lane="G3b_0" pos="923.80" x="1106.24" y="1001.37" speed="29.91"/>
        <vehicle id="veh20" lane="G3b_0" pos="319.17" x="501.62" y="997.44" speed="27.12"/>
        <vehicle id="veh21" lane="G3b_0" pos="286.79" x="469.24" y="997.23" speed="27.00"/>
        <vehicle id="veh22" lane="G3b_0" pos="253.74" x="436.18" y="997.02" speed="26.99"/>
        <vehicle id="veh23" lane="G3b_0" pos="219.70" x="402.15" y="996.80" speed="27.13"/>
        <vehicle id="veh24" lane="G3b_0" pos="185.89" x="368.34" y="996.58" speed="27.22"/>
        <vehicle id="veh25" lane="G3b_0" pos="152.29" x="334.74" y="996.36" speed="27.27"/>
        <vehicle id="veh26" lane="G3b_0" pos="118.23" x="300.67" y="996.14" speed="24.33"/>
        <vehicle id="veh27" lane="G3b_0" pos="89.43" x="271.87" y="995.95" speed="21.06"/>
        <vehicle id="veh28" lane="G3b_0" pos="65.10" x="247.55" y="995.79" speed="17.86"/>
        <vehicle id="veh29" lane="G3b_0" pos="45.09" x="227.54" y="995.66" speed="14.76"/>
        <vehicle id="veh3" lane="G3b_0" pos="888.42" x="1070.85" y="1001.14" speed="29.84"/>
        <vehicle id="veh30" lane="G3b_0" pos="28.56" x="211.01" y="995.56" speed="11.47"/>
        <vehicle id="veh31" lane="G3b_0" pos="16.01" x="198.46" y="995.47" speed="8.08"/>
        <vehicle id="veh32" lane="G3b_0" pos="7.65" x="190.10" y="995.42" speed="4.90"/>
        <vehicle id="veh4" lane="G3b_0" pos="853.24" x="1035.67" y="1000.91" speed="29.75"/>
        <vehicle id="veh5" lane="G3b_0" pos="818.29" x="1000.73" y="1000.68" speed="29.64"/>
        <vehicle id="veh6" lane="G3b_0" pos="783.61" x="966.05" y="1000.46" speed="29.51"/>
        <vehicle id="veh7" lane="G3b_0" pos="749.22" x="931.65" y="1000.23" speed="29.35"/>
        <vehicle id="veh8" lane="G3b_0" pos="715.10" x="897.53" y="1000.01" speed="29.18"/>
        <vehicle id="veh9" lane="G3b_0" pos="681.21" x="863.65" y="999.79" speed="28.99"/>
    </timestep>
    <timestep time="34.00" id="veh5" vType="">
        <vehicle id="veh0" lane="G3b_0" pos="1025.10" x="1207.53" y="1002.02" speed="30.00"/>
        <vehicle id="veh1" lane="G3b_0" pos="989.34" x="1171.77" y="1001.79" speed="29.97"/>
        <vehicle id="veh10" lane="G3b_0" pos="676.41" x="858.85" y="999.76" speed="28.91"/>
        <vehicle id="veh11" lane="G3b_0" pos="642.79" x="825.23" y="999.54" speed="28.72"/>
        <vehicle id="veh12" lane="G3b_0" pos="609.40" x="791.83" y="999.33" speed="28.53"/>
        <vehicle id="veh13" lane="G3b_0" pos="576.16" x="758.59" y="999.11" speed="28.34"/>
        <vehicle id="veh14" lane="G3b_0" pos="543.11" x="725.55" y="998.90" speed="28.14"/>
        <vehicle id="veh15" lane="G3b_0" pos="510.20" x="692.64" y="998.68" speed="27.96"/>
        <vehicle id="veh16" lane="G3b_0" pos="477.33" x="659.77" y="998.47" speed="27.79"/>
        <vehicle id="veh17" lane="G3b_0" pos="444.73" x="627.17" y="998.26" speed="27.60"/>
        <vehicle id="veh18" lane="G3b_0" pos="412.04" x="594.48" y="998.04" speed="27.46"/>
        <vehicle id="veh19" lane="G3b_0" pos="379.11" x="561.55" y="997.83" speed="27.37"/>
        <vehicle id="veh2" lane="G3b_0" pos="953.72" x="1136.15" y="1001.56" speed="29.92"/>
        <vehicle id="veh20" lane="G3b_0" pos="346.37" x="528.81" y="997.62" speed="27.26"/>
        <vehicle id="veh21" lane="G3b_0" pos="313.87" x="496.31" y="997.41" speed="27.14"/>
        <vehicle id="veh22" lane="G3b_0" pos="280.80" x="463.24" y="997.19" speed="27.12"/>
        <vehicle id="veh23" lane="G3b_0" pos="246.88" x="429.33" y="996.97" speed="27.22"/>
        <vehicle id="veh24" lane="G3b_0" pos="213.15" x="395.59" y="996.75" speed="27.29"/>
        <vehicle id="veh25" lane="G3b_0" pos="179.59" x="362.04" y="996.54" speed="27.32"/>
        <vehicle id="veh26" lane="G3b_0" pos="143.98" x="326.43" y="996.30" speed="26.93"/>
        <vehicle id="veh27" lane="G3b_0" pos="111.92" x="294.37" y="996.10" speed="23.66"/>
        <vehicle id="veh28" lane="G3b_0" pos="84.39" x="266.84" y="995.92" speed="20.46"/>
        <vehicle id="veh29" lane="G3b_0" pos="61.28" x="243.73" y="995.77" speed="17.36"/>
        <vehicle id="veh3" lane="G3b_0" pos="918.27" x="1100.70" y="1001.33" speed="29.86"/>
        <vehicle id="veh30" lane="G3b_0" pos="41.45" x="223.90" y="995.64" speed="14.07"/>
        <vehicle id="veh31" lane="G3b_0" pos="25.53" x="207.98" y="995.54" speed="10.68"/>
        <vehicle id="veh32" lane="G3b_0" pos="13.98" x="196.43" y="995.46" speed="7.50"/>
        <vehicle id="veh33" lane="G3b_0" pos="6.58" x="189.03" y="995.41" speed="4.08"/>
        <vehicle id="veh4" lane="G3b_0" pos="883.00" x="1065.44" y="1001.10" speed="29.78"/>
        <vehicle id="veh5" lane="G3b_0" pos="847.95" x="1030.39" y="1000.87" speed="29.68"/>
        <vehicle id="veh6" lane="G3b_0" pos="813.15" x="995.58" y="1000.65" speed="29.56"/>
        <vehicle id="veh7" lane="G3b_0" pos="778.60" x="961.04" y="1000.42" speed="29.42"/>
        <vehicle id="veh8" lane="G3b_0" pos="744.32" x="926.75" y="1000.20" speed="29.26"/>
        <vehicle id="veh9" lane="G3b_0" pos="710.26" x="892.70" y="999.98" speed="29.09"/>
    </timestep>
    <timestep time="35.00" id="veh5" vType="">
        <vehicle id="veh0" lane="G3b_0" pos="1055.10" x="1237.53" y="1002.22" speed="30.00"/>
        <vehicle id="veh1" lane="G3b_0" pos="1019.31" x="1201.74" y="1001.99" speed="29.97"/>
        <vehicle id="veh10" lane="G3b_0" pos="705.37" x="887.81" y="999.95" speed="29.01"/>
        <vehicle id="veh11" lane="G3b_0" pos="671.57" x="854.01" y="999.73" speed="28.83"/>
        <vehicle id="veh12" lane="G3b_0" pos="637.99" x="820.43" y="999.51" speed="28.65"/>
        <vehicle id="veh13" lane="G3b_0" pos="604.57" x="787.00" y="999.29" speed="28.47"/>
        <vehicle id="veh14" lane="G3b_0" pos="571.34" x="753.77" y="999.08" speed="28.28"/>
        <vehicle id="veh15" lane="G3b_0" pos="538.24" x="720.68" y="998.86" speed="28.11"/>
        <vehicle id="veh16" lane="G3b_0" pos="505.20" x="687.64" y="998.65" speed="27.94"/>
        <vehicle id="veh17" lane="G3b_0" pos="472.43" x="654.87" y="998.44" speed="27.76"/>
        <vehicle id="veh18" lane="G3b_0" pos="439.59" x="622.03" y="998.22" speed="27.62"/>
        <vehicle id="veh19" lane="G3b_0" pos="406.56" x="589.00" y="998.01" speed="27.52"/>
        <vehicle id="veh2" lane="G3b_0" pos="983.65" x="1166.08" y="1001.76" speed="29.93"/>
        <vehicle id="veh20" lane="G3b_0" pos="373.71" x="556.16" y="997.80" speed="27.41"/>
        <vehicle id="veh21" lane="G3b_0" pos="341.09" x="523.53" y="997.58" speed="27.28"/>
        <vehicle id="veh22" lane="G3b_0" pos="307.99" x="490.43" y="997.37" speed="27.24"/>
        <vehicle id="veh23" lane="G3b_0" pos="274.16" x="456.60" y="997.15" speed="27.32"/>
        <vehicle id="veh24" lane="G3b_0" pos="240.47" x="422.92" y="996.93" speed="27.36"/>
        <vehicle id="veh25" lane="G3b_0" pos="206.94" x="389.39" y="996.71" speed="27.38"/>
        <vehicle id="veh26" lane="G3b_0" pos="171.57" x="354.02" y="996.48" speed="27.66"/>
        <vehicle id="veh27" lane="G3b_0" pos="137.01" x="319.46" y="996.26" speed="26.26"/>
        <vehicle id="veh28" lane="G3b_0" pos="106.29" x="288.74" y="996.06" speed="23.06"/>
        <vehicle id="veh29" lane="G3b_0" pos="80.08" x="262.52" y="995.89" speed="19.96"/>
        <vehicle id="veh3" lane="G3b_0" pos="948.13" x="1130.56" y="1001.52" speed="29.87"/>
        <vehicle id="veh30" lane="G3b_0" pos="56.95" x="239.40" y="995.74" speed="16.67"/>
        <vehicle id="veh31" lane="G3b_0" pos="37.64" x="220.09" y="995.61" speed="13.28"/>
        <vehicle id="veh32" lane="G3b_0" pos="22.91" x="205.36" y="995.52" speed="10.10"/>
        <vehicle id="veh33" lane="G3b_0" pos="12.09" x="194.54" y="995.45" speed="6.68"/>
        <vehicle id="veh34" lane="G3b_0" pos="5.44" x="187.89" y="995.41" speed="3.44"/>
        <vehicle id="veh4" lane="G3b_0" pos="912.79" x="1095.23" y="1001.30" speed="29.80"/>
        <vehicle id="veh5" lane="G3b_0" pos="877.65" x="1060.08" y="1001.07" speed="29.71"/>
        <vehicle id="veh6" lane="G3b_0" pos="842.73" x="1025.16" y="1000.84" speed="29.60"/>
        <vehicle id="veh7" lane="G3b_0" pos="808.05" x="990.48" y="1000.62" speed="29.47"/>
        <vehicle id="veh8" lane="G3b_0" pos="773.61" x="956.05" y="1000.39" speed="29.33"/>
        <vehicle id="veh9" lane="G3b_0" pos="739.39" x="921.83" y="1000.17" speed="29.17"/>
    </timestep>
    <timestep time="36.00" id="veh5" vType="">
        <vehicle id="veh0" lane="G3b_0" pos="1085.10" x="1267.53" y="1002.41" speed="30.00"/>
        <vehicle id="veh1" lane="G3b_0" pos="1049.28" x="1231.71" y="1002.18" speed="29.98"/>
        <vehicle id="veh10" lane="G3b_0" pos="734.43" x="916.86" y="1000.14" speed="29.10"/>
        <vehicle id="veh11" lane="G3b_0" pos="700.46" x="882.90" y="999.92" speed="28.93"/>
        <vehicle id="veh12" lane="G3b_0" pos="666.70" x="849.14" y="999.70" speed="28.76"/>
        <vehicle id="veh13" lane="G3b_0" pos="633.10" x="815.54" y="999.48" speed="28.59"/>
        <vehicle id="veh14" lane="G3b_0" pos="599.69" x="782.13" y="999.26" speed="28.42"/>
        <vehicle id="veh15" lane="G3b_0" pos="566.42" x="748.86" y="999.05" speed="28.25"/>
        <vehicle id="veh16" lane="G3b_0" pos="533.22" x="715.66" y="998.83" speed="28.09"/>
        <vehicle id="veh17" lane="G3b_0" pos="500.27" x="682.71" y="998.62" speed="27.91"/>
        <vehicle id="veh18" lane="G3b_0" pos="467.29" x="649.73" y="998.40" speed="27.77"/>
        <vehicle id="veh19" lane="G3b_0" pos="434.16" x="616.60" y="998.19" speed="27.66"/>
        <vehicle id="veh2" lane="G3b_0" pos="1013.58" x="1196.01" y="1001.95" speed="29.94"/>
        <vehicle id="veh20" lane="G3b_0" pos="401.20" x="583.64" y="997.97" speed="27.55"/>
        <vehicle id="veh21" lane="G3b_0" pos="368.45" x="550.89" y="997.76" speed="27.42"/>
        <vehicle id="veh22" lane="G3b_0" pos="335.30" x="517.74" y="997.55" speed="27.37"/>
        <vehicle id="veh23" lane="G3b_0" pos="301.53" x="483.97" y="997.33" speed="27.42"/>
        <vehicle id="veh24" lane="G3b_0" pos="267.88" x="450.33" y="997.11" speed="27.44"/>
        <vehicle id="veh25" lane="G3b_0" pos="234.36" x="416.80" y="996.89" speed="27.45"/>
        <vehicle id="veh26" lane="G3b_0" pos="199.24" x="381.69" y="996.66" speed="27.68"/>
        <vehicle id="veh27" lane="G3b_0" pos="164.45" x="346.89" y="996.44" speed="27.84"/>
        <vehicle id="veh28" lane="G3b_0" pos="130.78" x="313.23" y="996.22" speed="25.66"/>
        <vehicle id="veh29" lane="G3b_0" pos="101.47" x="283.91" y="996.03" speed="22.56"/>
        <vehicle id="veh3" lane="G3b_0" pos="978.02" x="1160.45" y="1001.72" speed="29.89"/>
        <vehicle id="veh30" lane="G3b_0" pos="75.05" x="257.50" y="995.86" speed="19.27"/>
        <vehicle id="veh31" lane="G3b_0" pos="52.36" x="234.81" y="995.71" speed="15.88"/>
        <vehicle id="veh32" lane="G3b_0" pos="34.45" x="216.89" y="995.59" speed="12.70"/>
        <vehicle id="veh33" lane="G3b_0" pos="20.21" x="202.66" y="995.50" speed="9.28"/>
        <vehicle id="veh34" lane="G3b_0" pos="10.32" x="192.77" y="995.44" speed="6.04"/>
        <vehicle id="veh4" lane="G3b_0" pos="942.61" x="1125.04" y="1001.49" speed="29.82"/>
        <vehicle id="veh5" lane="G3b_0" pos="907.38" x="1089.81" y="1001.26" speed="29.74"/>
        <vehicle id="veh6" lane="G3b_0" pos="872.35" x="1054.79" y="1001.03" speed="29.64"/>
        <vehicle id="veh7" lane="G3b_0" pos="837.55" x="1019.99" y="1000.81" speed="29.53"/>
        <vehicle id="veh8" lane="G3b_0" pos="802.98" x="985.41" y="1000.58" speed="29.39"/>
        <vehicle id="veh9" lane="G3b_0" pos="768.61" x="951.04" y="1000.36" speed="29.25"/>
    </timestep>
    <timestep time="37.00" id="veh5" vType="">
        <vehicle id="veh0" lane="G3b_0" pos="1115.10" x="1297.53" y="1002.61" speed="30.00"/>
        <vehicle id="veh1" lane="G3b_0" pos="1079.26" x="1261.69" y="1002.38" speed="29.98"/>
        <vehicle id="veh10" lane="G3b_0" pos="763.57" x="946.00" y="1000.33" speed="29.18"/>
        <vehicle id="veh11" lane="G3b_0" pos="729.45" x="911.88" y="1000.11" speed="29.03"/>
        <vehicle id="veh12" lane="G3b_0" pos="695.53" x="877.96" y="999.88" speed="28.87"/>
        <vehicle id="veh13" lane="G3b_0" pos="661.76" x="844.20" y="999.67" speed="28.71"/>
        <vehicle id="veh14" lane="G3b_0" pos="628.18" x="810.62" y="999.45" speed="28.54"/>
        <vehicle id="veh15" lane="G3b_0" pos="594.74" x="777.18" y="999.23" speed="28.38"/>
        <vehicle id="veh16" lane="G3b_0" pos="561.39" x="743.82" y="999.01" speed="28.22"/>
        <vehicle id="veh17" lane="G3b_0" pos="528.26" x="710.70" y="998.80" speed="28.05"/>
        <vehicle id="veh18" lane="G3b_0" pos="495.14" x="677.58" y="998.58" speed="27.91"/>
        <vehicle id="veh19" lane="G3b_0" pos="461.90" x="644.34" y="998.37" speed="27.80"/>
        <vehicle id="veh2" lane="G3b_0" pos="1043.52" x="1225.95" y="1002.14" speed="29.95"/>
        <vehicle id="veh20" lane="G3b_0" pos="428.83" x="611.27" y="998.15" speed="27.69"/>
        <vehicle id="veh21" lane="G3b_0" pos="395.95" x="578.39" y="997.94" speed="27.56"/>
        <vehicle id="veh22" lane="G3b_0" pos="362.74" x="545.18" y="997.72" speed="27.50"/>
        <vehicle id="veh23" lane="G3b_0" pos="329.00" x="511.45" y="997.51" speed="27.52"/>
        <vehicle id="veh24" lane="G3b_0" pos="295.37" x="477.81" y="997.29" speed="27.53"/>
        <vehicle id="veh25" lane="G3b_0" pos="261.84" x="444.29" y="997.07" speed="27.52"/>
        <vehicle id="veh26" lane="G3b_0" pos="226.94" x="409.38" y="996.84" speed="27.71"/>
        <vehicle id="veh27" lane="G3b_0" pos="192.28" x="374.73" y="996.62" speed="27.84"/>
        <vehicle id="veh28" lane="G3b_0" pos="157.84" x="340.28" y="996.39" speed="27.93"/>
        <vehicle id="veh29" lane="G3b_0" pos="125.46" x="307.91" y="996.18" speed="25.16"/>
        <vehicle id="veh3" lane="G3b_0" pos="1007.91" x="1190.34" y="1001.91" speed="29.90"/>
        <vehicle id="veh30" lane="G3b_0" pos="95.74" x="278.19" y="995.99" speed="21.87"/>
        <vehicle id="veh31" lane="G3b_0" pos="69.67" x="252.12" y="995.82" speed="18.48"/>
        <vehicle id="veh32" lane="G3b_0" pos="48.58" x="231.03" y="995.69" speed="15.30"/>
        <vehicle id="veh33" lane="G3b_0" pos="30.92" x="213.37" y="995.57" speed="11.88"/>
        <vehicle id="veh34" lane="G3b_0" pos="17.79" x="200.24" y="995.49" speed="8.64"/>
        <vehicle id="veh35" lane="G3b_0" pos="8.75" x="191.20" y="995.43" speed="5.48"/>
        <vehicle id="veh4" lane="G3b_0" pos="972.44" x="1154.87" y="1001.68" speed="29.84"/>
        <vehicle id="veh5" lane="G3b_0" pos="937.14" x="1119.57" y="1001.45" speed="29.77"/>
        <vehicle id="veh6" lane="G3b_0" pos="902.02" x="1084.45" y="1001.23" speed="29.68"/>
        <vehicle id="veh7" lane="G3b_0" pos="867.10" x="1049.54" y="1001.00" speed="29.57"/>
        <vehicle id="veh8" lane="G3b_0" pos="832.40" x="1014.84" y="1000.77" speed="29.45"/>
        <vehicle id="veh9" lane="G3b_0" pos="797.89" x="980.33" y="1000.55" speed="29.32"/>
    </timestep>
    <timestep time="38.00" id="veh5" vType="">
        <vehicle id="veh0" lane="G3b_0" pos="1145.10" x="1327.53" y="1002.80" speed="30.00"/>
        <vehicle id="veh1" lane="G3b_0" pos="1109.24" x="1291.67" y="1002.57" speed="29.98"/>
        <vehicle id="veh10" lane="G3b_0" pos="792.79" x="975.22" y="1000.52" speed="29.25"/>
        <vehicle id="veh11" lane="G3b_0" pos="758.52" x="940.95" y="1000.29" speed="29.11"/>
        <vehicle id="veh12" lane="G3b_0" pos="724.44" x="906.88" y="1000.07" speed="28.96"/>
        <vehicle id="veh13" lane="G3b_0" pos="690.52" x="872.96" y="999.85" speed="28.81"/>
        <vehicle id="veh14" lane="G3b_0" pos="656.78" x="839.22" y="999.63" speed="28.65"/>
        <vehicle id="veh15" lane="G3b_0" pos="623.18" x="805.62" y="999.42" speed="28.50"/>
        <vehicle id="veh16" lane="G3b_0" pos="589.68" x="772.12" y="999.20" speed="28.35"/>
        <vehicle id="veh17" lane="G3b_0" pos="556.39" x="738.83" y="998.98" speed="28.19"/>
        <vehicle id="veh18" lane="G3b_0" pos="523.12" x="705.56" y="998.77" speed="28.05"/>
        <vehicle id="veh19" lane="G3b_0" pos="489.78" x="672.22" y="998.55" speed="27.94"/>
        <vehicle id="veh2" lane="G3b_0" pos="1073.47" x="1255.90" y="1002.34" speed="29.95"/>
        <vehicle id="veh20" lane="G3b_0" pos="456.59" x="639.03" y="998.33" speed="27.82"/>
        <vehicle id="veh21" lane="G3b_0" pos="423.58" x="606.02" y="998.12" speed="27.69"/>
        <vehicle id="veh22" lane="G3b_0" pos="390.31" x="572.75" y="997.90" speed="27.62"/>
        <vehicle id="veh23" lane="G3b_0" pos="356.58" x="539.02" y="997.68" speed="27.62"/>
        <vehicle id="veh24" lane="G3b_0" pos="322.95" x="505.39" y="997.47" speed="27.62"/>
        <vehicle id="veh25" lane="G3b_0" pos="289.41" x="471.85" y="997.25" speed="27.60"/>
        <vehicle id="veh26" lane="G3b_0" pos="254.67" x="437.12" y="997.02" speed="27.75"/>
        <vehicle id="veh27" lane="G3b_0" pos="220.14" x="402.58" y="996.80" speed="27.86"/>
        <vehicle id="veh28" lane="G3b_0" pos="185.76" x="368.21" y="996.58" speed="27.93"/>
        <vehicle id="veh29" lane="G3b_0" pos="152.05" x="334.50" y="996.36" speed="27.76"/>
        <vehicle id="veh3" lane="G3b_0" pos="1037.82" x="1220.25" y="1002.11" speed="29.91"/>
        <vehicle id="veh30" lane="G3b_0" pos="119.04" x="301.49" y="996.14" speed="24.47"/>
        <vehicle id="veh31" lane="G3b_0" pos="89.59" x="272.04" y="995.95" speed="21.08"/>
        <vehicle id="veh32" lane="G3b_0" pos="65.31" x="247.76" y="995.79" speed="17.90"/>
        <vehicle id="veh33" lane="G3b_0" pos="44.24" x="226.69" y="995.66" speed="14.48"/>
        <vehicle id="veh34" lane="G3b_0" pos="27.86" x="210.31" y="995.55" speed="11.24"/>
        <vehicle id="veh35" lane="G3b_0" pos="15.66" x="198.11" y="995.47" speed="8.08"/>
[...]
        <vehicle id="veh107" lane="G3b_0" pos="889.71" x="1072.14" y="1001.15" speed="0.00"/>
        <vehicle id="veh108" lane="G3b_0" pos="883.71" x="1066.14" y="1001.11" speed="0.00"/>
        <vehicle id="veh109" lane="G3b_0" pos="877.71" x="1060.14" y="1001.07" speed="0.00"/>
        <vehicle id="veh11" lane="G3b_0" pos="1465.81" x="1648.23" y="1004.89" speed="0.00"/>
        <vehicle id="veh110" lane="G3b_0" pos="871.71" x="1054.14" y="1001.03" speed="0.00"/>
        <vehicle id="veh111" lane="G3b_0" pos="865.71" x="1048.14" y="1000.99" speed="0.00"/>
        <vehicle id="veh112" lane="G3b_0" pos="859.71" x="1042.14" y="1000.95" speed="0.00"/>
        <vehicle id="veh113" lane="G3b_0" pos="853.71" x="1036.14" y="1000.91" speed="0.00"/>
        <vehicle id="veh114" lane="G3b_0" pos="847.70" x="1030.14" y="1000.87" speed="0.00"/>
        <vehicle id="veh115" lane="G3b_0" pos="841.70" x="1024.14" y="1000.83" speed="0.00"/>
        <vehicle id="veh116" lane="G3b_0" pos="835.70" x="1018.14" y="1000.79" speed="0.00"/>
        <vehicle id="veh117" lane="G3b_0" pos="829.70" x="1012.14" y="1000.76" speed="0.00"/>
        <vehicle id="veh118" lane="G3b_0" pos="823.70" x="1006.13" y="1000.72" speed="0.00"/>
        <vehicle id="veh119" lane="G3b_0" pos="817.70" x="1000.13" y="1000.68" speed="0.00"/>
        <vehicle id="veh12" lane="G3b_0" pos="1459.81" x="1642.23" y="1004.85" speed="0.00"/>
        <vehicle id="veh120" lane="G3b_0" pos="811.70" x="994.13" y="1000.64" speed="0.00"/>
        <vehicle id="veh121" lane="G3b_0" pos="805.70" x="988.13" y="1000.60" speed="0.00"/>
        <vehicle id="veh122" lane="G3b_0" pos="799.70" x="982.13" y="1000.56" speed="0.00"/>
        <vehicle id="veh123" lane="G3b_0" pos="793.70" x="976.13" y="1000.52" speed="0.00"/>
        <vehicle id="veh124" lane="G3b_0" pos="787.69" x="970.13" y="1000.48" speed="0.00"/>
        <vehicle id="veh125" lane="G3b_0" pos="781.69" x="964.13" y="1000.44" speed="0.00"/>
        <vehicle id="veh126" lane="G3b_0" pos="775.69" x="958.13" y="1000.41" speed="0.00"/>
        <vehicle id="veh127" lane="G3b_0" pos="769.69" x="952.13" y="1000.37" speed="0.00"/>
        <vehicle id="veh128" lane="G3b_0" pos="763.69" x="946.13" y="1000.33" speed="0.00"/>
        <vehicle id="veh129" lane="G3b_0" pos="757.69" x="940.13" y="1000.29" speed="0.00"/>
        <vehicle id="veh13" lane="G3b_0" pos="1453.81" x="1636.23" y="1004.81" speed="0.00"/>
        <vehicle id="veh130" lane="G3b_0" pos="751.69" x="934.12" y="1000.25" speed="0.00"/>
        <vehicle id="veh131" lane="G3b_0" pos="745.69" x="928.12" y="1000.21" speed="0.00"/>
        <vehicle id="veh132" lane="G3b_0" pos="739.69" x="922.12" y="1000.17" speed="0.00"/>
        <vehicle id="veh133" lane="G3b_0" pos="733.69" x="916.12" y="1000.13" speed="0.00"/>
        <vehicle id="veh134" lane="G3b_0" pos="727.68" x="910.12" y="1000.09" speed="0.00"/>
        <vehicle id="veh135" lane="G3b_0" pos="721.68" x="904.12" y="1000.05" speed="0.00"/>
        <vehicle id="veh136" lane="G3b_0" pos="715.68" x="898.12" y="1000.02" speed="0.00"/>
        <vehicle id="veh137" lane="G3b_0" pos="709.68" x="892.12" y="999.98" speed="0.00"/>
        <vehicle id="veh138" lane="G3b_0" pos="703.68" x="886.12" y="999.94" speed="0.00"/>
        <vehicle id="veh139" lane="G3b_0" pos="697.68" x="880.12" y="999.90" speed="0.00"/>
        <vehicle id="veh14" lane="G3b_0" pos="1447.80" x="1630.23" y="1004.77" speed="0.00"/>
        <vehicle id="veh140" lane="G3b_0" pos="691.68" x="874.12" y="999.86" speed="0.00"/>
        <vehicle id="veh141" lane="G3b_0" pos="685.68" x="868.11" y="999.82" speed="0.00"/>
        <vehicle id="veh142" lane="G3b_0" pos="679.68" x="862.11" y="999.78" speed="0.00"/>
        <vehicle id="veh143" lane="G3b_0" pos="673.68" x="856.11" y="999.74" speed="0.00"/>
        <vehicle id="veh144" lane="G3b_0" pos="667.67" x="850.11" y="999.70" speed="0.00"/>
        <vehicle id="veh145" lane="G3b_0" pos="661.67" x="844.11" y="999.67" speed="0.00"/>
        <vehicle id="veh146" lane="G3b_0" pos="655.67" x="838.11" y="999.63" speed="0.00"/>
        <vehicle id="veh147" lane="G3b_0" pos="649.67" x="832.11" y="999.59" speed="0.00"/>
        <vehicle id="veh148" lane="G3b_0" pos="643.67" x="826.11" y="999.55" speed="0.00"/>
        <vehicle id="veh149" lane="G3b_0" pos="637.67" x="820.11" y="999.51" speed="0.00"/>
        <vehicle id="veh15" lane="G3b_0" pos="1441.80" x="1624.23" y="1004.73" speed="0.00"/>
        <vehicle id="veh150" lane="G3b_0" pos="631.67" x="814.11" y="999.47" speed="0.00"/>
        <vehicle id="veh151" lane="G3b_0" pos="625.67" x="808.11" y="999.43" speed="0.00"/>
        <vehicle id="veh152" lane="G3b_0" pos="619.67" x="802.10" y="999.39" speed="0.00"/>
        <vehicle id="veh153" lane="G3b_0" pos="613.67" x="796.10" y="999.35" speed="0.00"/>
        <vehicle id="veh154" lane="G3b_0" pos="607.66" x="790.10" y="999.31" speed="0.00"/>
        <vehicle id="veh155" lane="G3b_0" pos="601.66" x="784.10" y="999.28" speed="0.00"/>
        <vehicle id="veh156" lane="G3b_0" pos="595.66" x="778.10" y="999.24" speed="0.00"/>
        <vehicle id="veh157" lane="G3b_0" pos="589.66" x="772.10" y="999.20" speed="0.00"/>
        <vehicle id="veh158" lane="G3b_0" pos="583.66" x="766.10" y="999.16" speed="0.00"/>
        <vehicle id="veh159" lane="G3b_0" pos="577.66" x="760.10" y="999.12" speed="0.00"/>
        <vehicle id="veh16" lane="G3b_0" pos="1435.80" x="1618.22" y="1004.69" speed="0.00"/>
        <vehicle id="veh160" lane="G3b_0" pos="571.66" x="754.10" y="999.08" speed="0.00"/>
        <vehicle id="veh161" lane="G3b_0" pos="565.66" x="748.10" y="999.04" speed="0.00"/>
        <vehicle id="veh162" lane="G3b_0" pos="559.66" x="742.09" y="999.00" speed="0.00"/>
        <vehicle id="veh163" lane="G3b_0" pos="553.65" x="736.09" y="998.96" speed="0.00"/>
        <vehicle id="veh164" lane="G3b_0" pos="547.65" x="730.09" y="998.92" speed="0.00"/>
        <vehicle id="veh165" lane="G3b_0" pos="541.65" x="724.09" y="998.89" speed="0.00"/>
        <vehicle id="veh166" lane="G3b_0" pos="535.65" x="718.09" y="998.85" speed="0.00"/>
        <vehicle id="veh167" lane="G3b_0" pos="529.64" x="712.08" y="998.81" speed="0.00"/>
        <vehicle id="veh168" lane="G3b_0" pos="523.64" x="706.08" y="998.77" speed="0.00"/>
        <vehicle id="veh169" lane="G3b_0" pos="517.63" x="700.07" y="998.73" speed="0.01"/>
        <vehicle id="veh17" lane="G3b_0" pos="1429.80" x="1612.22" y="1004.65" speed="0.00"/>
        <vehicle id="veh170" lane="G3b_0" pos="511.62" x="694.06" y="998.69" speed="0.01"/>
        <vehicle id="veh171" lane="G3b_0" pos="505.61" x="688.05" y="998.65" speed="0.01"/>
        <vehicle id="veh172" lane="G3b_0" pos="499.59" x="682.03" y="998.61" speed="0.02"/>
        <vehicle id="veh173" lane="G3b_0" pos="493.56" x="676.00" y="998.57" speed="0.03"/>
        <vehicle id="veh174" lane="G3b_0" pos="487.53" x="669.97" y="998.53" speed="0.04"/>
        <vehicle id="veh175" lane="G3b_0" pos="481.48" x="663.92" y="998.50" speed="0.05"/>
        <vehicle id="veh176" lane="G3b_0" pos="475.41" x="657.85" y="998.46" speed="0.07"/>
        <vehicle id="veh177" lane="G3b_0" pos="469.31" x="651.75" y="998.42" speed="0.10"/>
        <vehicle id="veh178" lane="G3b_0" pos="463.17" x="645.61" y="998.38" speed="0.14"/>
        <vehicle id="veh179" lane="G3b_0" pos="456.99" x="639.43" y="998.34" speed="0.19"/>
        <vehicle id="veh18" lane="G3b_0" pos="1423.80" x="1606.22" y="1004.61" speed="0.00"/>
        <vehicle id="veh180" lane="G3b_0" pos="450.74" x="633.18" y="998.30" speed="0.26"/>
        <vehicle id="veh181" lane="G3b_0" pos="444.40" x="626.84" y="998.25" speed="0.35"/>
        <vehicle id="veh182" lane="G3b_0" pos="437.95" x="620.39" y="998.21" speed="0.46"/>
        <vehicle id="veh183" lane="G3b_0" pos="431.36" x="613.80" y="998.17" speed="0.59"/>
        <vehicle id="veh184" lane="G3b_0" pos="424.61" x="607.05" y="998.13" speed="0.75"/>
        <vehicle id="veh185" lane="G3b_0" pos="417.66" x="600.10" y="998.08" speed="0.94"/>
        <vehicle id="veh186" lane="G3b_0" pos="410.49" x="592.94" y="998.03" speed="1.15"/>
        <vehicle id="veh187" lane="G3b_0" pos="403.08" x="585.52" y="997.99" speed="1.39"/>
        <vehicle id="veh188" lane="G3b_0" pos="395.39" x="577.84" y="997.94" speed="1.64"/>
        <vehicle id="veh189" lane="G3b_0" pos="387.42" x="569.86" y="997.88" speed="1.92"/>
        <vehicle id="veh19" lane="G3b_0" pos="1417.80" x="1600.22" y="1004.57" speed="0.00"/>
        <vehicle id="veh190" lane="G3b_0" pos="379.13" x="561.58" y="997.83" speed="2.20"/>
        <vehicle id="veh191" lane="G3b_0" pos="370.53" x="552.97" y="997.78" speed="2.50"/>
        <vehicle id="veh192" lane="G3b_0" pos="361.60" x="544.04" y="997.72" speed="2.81"/>
        <vehicle id="veh193" lane="G3b_0" pos="352.33" x="534.78" y="997.66" speed="3.13"/>
        <vehicle id="veh194" lane="G3b_0" pos="342.73" x="525.17" y="997.59" speed="3.44"/>
        <vehicle id="veh195" lane="G3b_0" pos="332.78" x="515.22" y="997.53" speed="3.76"/>
        <vehicle id="veh196" lane="G3b_0" pos="322.49" x="504.94" y="997.46" speed="4.08"/>
        <vehicle id="veh197" lane="G3b_0" pos="311.88" x="494.32" y="997.39" speed="4.39"/>
        <vehicle id="veh198" lane="G3b_0" pos="300.93" x="483.37" y="997.32" speed="4.70"/>
        <vehicle id="veh199" lane="G3b_0" pos="289.66" x="472.10" y="997.25" speed="5.01"/>
        <vehicle id="veh2" lane="G3b_0" pos="1519.82" x="1702.24" y="1005.24" speed="0.00"/>
        <vehicle id="veh20" lane="G3b_0" pos="1411.80" x="1594.22" y="1004.53" speed="0.00"/>
        <vehicle id="veh200" lane="G3b_0" pos="278.08" x="460.52" y="997.18" speed="5.31"/>
        <vehicle id="veh201" lane="G3b_0" pos="266.19" x="448.64" y="997.10" speed="5.60"/>
        <vehicle id="veh202" lane="G3b_0" pos="254.02" x="436.47" y="997.02" speed="5.89"/>
        <vehicle id="veh203" lane="G3b_0" pos="241.58" x="424.02" y="996.94" speed="6.16"/>
        <vehicle id="veh204" lane="G3b_0" pos="228.87" x="411.31" y="996.86" speed="6.42"/>
        <vehicle id="veh205" lane="G3b_0" pos="215.92" x="398.36" y="996.77" speed="6.66"/>
        <vehicle id="veh206" lane="G3b_0" pos="202.74" x="385.19" y="996.69" speed="6.89"/>
        <vehicle id="veh207" lane="G3b_0" pos="189.37" x="371.81" y="996.60" speed="7.11"/>
        <vehicle id="veh208" lane="G3b_0" pos="175.81" x="358.26" y="996.51" speed="7.31"/>
        <vehicle id="veh209" lane="G3b_0" pos="162.10" x="344.55" y="996.42" speed="7.48"/>
        <vehicle id="veh21" lane="G3b_0" pos="1405.80" x="1588.22" y="1004.50" speed="0.00"/>
        <vehicle id="veh210" lane="G3b_0" pos="148.27" x="330.72" y="996.33" speed="7.63"/>
        <vehicle id="veh211" lane="G3b_0" pos="134.35" x="316.80" y="996.24" speed="7.75"/>
        <vehicle id="veh212" lane="G3b_0" pos="120.38" x="302.83" y="996.15" speed="7.85"/>
        <vehicle id="veh213" lane="G3b_0" pos="106.41" x="288.86" y="996.06" speed="7.90"/>
        <vehicle id="veh214" lane="G3b_0" pos="92.50" x="274.95" y="995.97" speed="7.91"/>
        <vehicle id="veh215" lane="G3b_0" pos="78.73" x="261.18" y="995.88" speed="7.86"/>
        <vehicle id="veh216" lane="G3b_0" pos="65.18" x="247.63" y="995.79" speed="7.74"/>
        <vehicle id="veh217" lane="G3b_0" pos="51.99" x="234.44" y="995.71" speed="7.52"/>
        <vehicle id="veh218" lane="G3b_0" pos="39.33" x="221.78" y="995.63" speed="7.17"/>
        <vehicle id="veh219" lane="G3b_0" pos="27.48" x="209.93" y="995.55" speed="6.60"/>
        <vehicle id="veh22" lane="G3b_0" pos="1399.80" x="1582.22" y="1004.46" speed="0.00"/>
        <vehicle id="veh220" lane="G3b_0" pos="16.86" x="199.31" y="995.48" speed="5.68"/>
        <vehicle id="veh221" lane="G3b_0" pos="8.33" x="190.78" y="995.42" speed="4.00"/>
        <vehicle id="veh23" lane="G3b_0" pos="1393.80" x="1576.22" y="1004.42" speed="0.00"/>
        <vehicle id="veh24" lane="G3b_0" pos="1387.79" x="1570.22" y="1004.38" speed="0.00"/>
        <vehicle id="veh25" lane="G3b_0" pos="1381.79" x="1564.22" y="1004.34" speed="0.00"/>
        <vehicle id="veh26" lane="G3b_0" pos="1375.79" x="1558.22" y="1004.30" speed="0.00"/>
        <vehicle id="veh27" lane="G3b_0" pos="1369.79" x="1552.22" y="1004.26" speed="0.00"/>
        <vehicle id="veh28" lane="G3b_0" pos="1363.79" x="1546.21" y="1004.22" speed="0.00"/>
        <vehicle id="veh29" lane="G3b_0" pos="1357.79" x="1540.21" y="1004.18" speed="0.00"/>
        <vehicle id="veh3" lane="G3b_0" pos="1513.82" x="1696.24" y="1005.20" speed="0.00"/>
        <vehicle id="veh30" lane="G3b_0" pos="1351.79" x="1534.21" y="1004.14" speed="0.00"/>
        <vehicle id="veh31" lane="G3b_0" pos="1345.79" x="1528.21" y="1004.11" speed="0.00"/>
        <vehicle id="veh32" lane="G3b_0" pos="1339.79" x="1522.21" y="1004.07" speed="0.00"/>
        <vehicle id="veh33" lane="G3b_0" pos="1333.79" x="1516.21" y="1004.03" speed="0.00"/>
        <vehicle id="veh34" lane="G3b_0" pos="1327.78" x="1510.21" y="1003.99" speed="0.00"/>
        <vehicle id="veh35" lane="G3b_0" pos="1321.78" x="1504.21" y="1003.95" speed="0.00"/>
        <vehicle id="veh36" lane="G3b_0" pos="1315.78" x="1498.21" y="1003.91" speed="0.00"/>
        <vehicle id="veh37" lane="G3b_0" pos="1309.78" x="1492.21" y="1003.87" speed="0.00"/>
        <vehicle id="veh38" lane="G3b_0" pos="1303.78" x="1486.21" y="1003.83" speed="0.00"/>
        <vehicle id="veh39" lane="G3b_0" pos="1297.78" x="1480.20" y="1003.79" speed="0.00"/>
        <vehicle id="veh4" lane="G3b_0" pos="1507.81" x="1690.24" y="1005.16" speed="0.00"/>
        <vehicle id="veh40" lane="G3b_0" pos="1291.78" x="1474.20" y="1003.76" speed="0.00"/>
        <vehicle id="veh41" lane="G3b_0" pos="1285.78" x="1468.20" y="1003.72" speed="0.00"/>
        <vehicle id="veh42" lane="G3b_0" pos="1279.78" x="1462.20" y="1003.68" speed="0.00"/>
        <vehicle id="veh43" lane="G3b_0" pos="1273.78" x="1456.20" y="1003.64" speed="0.00"/>
        <vehicle id="veh44" lane="G3b_0" pos="1267.77" x="1450.20" y="1003.60" speed="0.00"/>
        <vehicle id="veh45" lane="G3b_0" pos="1261.77" x="1444.20" y="1003.56" speed="0.00"/>
        <vehicle id="veh46" lane="G3b_0" pos="1255.77" x="1438.20" y="1003.52" speed="0.00"/>
        <vehicle id="veh47" lane="G3b_0" pos="1249.77" x="1432.20" y="1003.48" speed="0.00"/>
        <vehicle id="veh48" lane="G3b_0" pos="1243.77" x="1426.20" y="1003.44" speed="0.00"/>
        <vehicle id="veh49" lane="G3b_0" pos="1237.77" x="1420.20" y="1003.40" speed="0.00"/>
        <vehicle id="veh5" lane="G3b_0" pos="1501.81" x="1684.23" y="1005.12" speed="0.00"/>
        <vehicle id="veh50" lane="G3b_0" pos="1231.77" x="1414.19" y="1003.37" speed="0.00"/>
        <vehicle id="veh51" lane="G3b_0" pos="1225.77" x="1408.19" y="1003.33" speed="0.00"/>
        <vehicle id="veh52" lane="G3b_0" pos="1219.77" x="1402.19" y="1003.29" speed="0.00"/>
        <vehicle id="veh53" lane="G3b_0" pos="1213.77" x="1396.19" y="1003.25" speed="0.00"/>
        <vehicle id="veh54" lane="G3b_0" pos="1207.76" x="1390.19" y="1003.21" speed="0.00"/>
        <vehicle id="veh55" lane="G3b_0" pos="1201.76" x="1384.19" y="1003.17" speed="0.00"/>
        <vehicle id="veh56" lane="G3b_0" pos="1195.76" x="1378.19" y="1003.13" speed="0.00"/>
        <vehicle id="veh57" lane="G3b_0" pos="1189.76" x="1372.19" y="1003.09" speed="0.00"/>
        <vehicle id="veh58" lane="G3b_0" pos="1183.76" x="1366.19" y="1003.05" speed="0.00"/>
        <vehicle id="veh59" lane="G3b_0" pos="1177.76" x="1360.19" y="1003.02" speed="0.00"/>
        <vehicle id="veh6" lane="G3b_0" pos="1495.81" x="1678.23" y="1005.08" speed="0.00"/>
        <vehicle id="veh60" lane="G3b_0" pos="1171.76" x="1354.19" y="1002.98" speed="0.00"/>
        <vehicle id="veh61" lane="G3b_0" pos="1165.76" x="1348.19" y="1002.94" speed="0.00"/>
        <vehicle id="veh62" lane="G3b_0" pos="1159.76" x="1342.18" y="1002.90" speed="0.00"/>
        <vehicle id="veh63" lane="G3b_0" pos="1153.76" x="1336.18" y="1002.86" speed="0.00"/>
        <vehicle id="veh64" lane="G3b_0" pos="1147.75" x="1330.18" y="1002.82" speed="0.00"/>
        <vehicle id="veh65" lane="G3b_0" pos="1141.75" x="1324.18" y="1002.78" speed="0.00"/>
        <vehicle id="veh66" lane="G3b_0" pos="1135.75" x="1318.18" y="1002.74" speed="0.00"/>
        <vehicle id="veh67" lane="G3b_0" pos="1129.75" x="1312.18" y="1002.70" speed="0.00"/>
        <vehicle id="veh68" lane="G3b_0" pos="1123.75" x="1306.18" y="1002.66" speed="0.00"/>
        <vehicle id="veh69" lane="G3b_0" pos="1117.75" x="1300.18" y="1002.63" speed="0.00"/>
        <vehicle id="veh7" lane="G3b_0" pos="1489.81" x="1672.23" y="1005.04" speed="0.00"/>
        <vehicle id="veh70" lane="G3b_0" pos="1111.75" x="1294.18" y="1002.59" speed="0.00"/>
        <vehicle id="veh71" lane="G3b_0" pos="1105.75" x="1288.18" y="1002.55" speed="0.00"/>
        <vehicle id="veh72" lane="G3b_0" pos="1099.75" x="1282.18" y="1002.51" speed="0.00"/>
        <vehicle id="veh73" lane="G3b_0" pos="1093.75" x="1276.17" y="1002.47" speed="0.00"/>
        <vehicle id="veh74" lane="G3b_0" pos="1087.74" x="1270.17" y="1002.43" speed="0.00"/>
        <vehicle id="veh75" lane="G3b_0" pos="1081.74" x="1264.17" y="1002.39" speed="0.00"/>
        <vehicle id="veh76" lane="G3b_0" pos="1075.74" x="1258.17" y="1002.35" speed="0.00"/>
        <vehicle id="veh77" lane="G3b_0" pos="1069.74" x="1252.17" y="1002.31" speed="0.00"/>
        <vehicle id="veh78" lane="G3b_0" pos="1063.74" x="1246.17" y="1002.28" speed="0.00"/>
        <vehicle id="veh79" lane="G3b_0" pos="1057.74" x="1240.17" y="1002.24" speed="0.00"/>
        <vehicle id="veh8" lane="G3b_0" pos="1483.81" x="1666.23" y="1005.00" speed="0.00"/>
        <vehicle id="veh80" lane="G3b_0" pos="1051.74" x="1234.17" y="1002.20" speed="0.00"/>
        <vehicle id="veh81" lane="G3b_0" pos="1045.74" x="1228.17" y="1002.16" speed="0.00"/>
        <vehicle id="veh82" lane="G3b_0" pos="1039.74" x="1222.17" y="1002.12" speed="0.00"/>
        <vehicle id="veh83" lane="G3b_0" pos="1033.74" x="1216.17" y="1002.08" speed="0.00"/>
        <vehicle id="veh84" lane="G3b_0" pos="1027.73" x="1210.16" y="1002.04" speed="0.00"/>
        <vehicle id="veh85" lane="G3b_0" pos="1021.73" x="1204.16" y="1002.00" speed="0.00"/>
        <vehicle id="veh86" lane="G3b_0" pos="1015.73" x="1198.16" y="1001.96" speed="0.00"/>
        <vehicle id="veh87" lane="G3b_0" pos="1009.73" x="1192.16" y="1001.92" speed="0.00"/>
        <vehicle id="veh88" lane="G3b_0" pos="1003.73" x="1186.16" y="1001.89" speed="0.00"/>
        <vehicle id="veh89" lane="G3b_0" pos="997.73" x="1180.16" y="1001.85" speed="0.00"/>
        <vehicle id="veh9" lane="G3b_0" pos="1477.81" x="1660.23" y="1004.96" speed="0.00"/>
        <vehicle id="veh90" lane="G3b_0" pos="991.73" x="1174.16" y="1001.81" speed="0.00"/>
        <vehicle id="veh91" lane="G3b_0" pos="985.73" x="1168.16" y="1001.77" speed="0.00"/>
        <vehicle id="veh92" lane="G3b_0" pos="979.73" x="1162.16" y="1001.73" speed="0.00"/>
        <vehicle id="veh93" lane="G3b_0" pos="973.73" x="1156.16" y="1001.69" speed="0.00"/>
        <vehicle id="veh94" lane="G3b_0" pos="967.72" x="1150.16" y="1001.65" speed="0.00"/>
        <vehicle id="veh95" lane="G3b_0" pos="961.72" x="1144.16" y="1001.61" speed="0.00"/>
        <vehicle id="veh96" lane="G3b_0" pos="955.72" x="1138.15" y="1001.57" speed="0.00"/>
        <vehicle id="veh97" lane="G3b_0" pos="949.72" x="1132.15" y="1001.53" speed="0.00"/>
        <vehicle id="veh98" lane="G3b_0" pos="943.72" x="1126.15" y="1001.50" speed="0.00"/>
        <vehicle id="veh99" lane="G3b_0" pos="937.72" x="1120.15" y="1001.46" speed="0.00"/>
    </timestep>
</vehicle-type-probes>
